conf_0
     RDKit          3D

 29 28  0  0  0  0  0  0  0  0999 V2000
   -3.0244   -1.2280   -0.5260 C   0  0  0  0  0  0  0  0  0  0  0  0
   -2.8316    0.0112    0.3158 C   0  0  0  0  0  0  0  0  0  0  0  0
   -1.6280    0.6133    0.4205 C   0  0  0  0  0  0  0  0  0  0  0  0
   -0.3909    0.1091   -0.2827 C   0  0  0  0  0  0  0  0  0  0  0  0
    0.8223    0.9939    0.0240 C   0  0  0  0  0  0  0  0  0  0  0  0
    2.0575    0.4750   -0.6860 C   0  0  0  0  0  0  0  0  0  0  0  0
    2.9055   -0.4132   -0.1210 C   0  0  0  0  0  0  0  0  0  0  0  0
    2.7504   -0.9492    1.2795 C   0  0  0  0  0  0  0  0  0  0  0  0
    3.7426   -1.9022    1.5472 O   0  0  0  0  0  0  0  0  0  0  0  0
    2.3237    0.9235   -2.0995 C   0  0  0  0  0  0  0  0  0  0  0  0
   -4.0023    0.5983    1.0608 C   0  0  0  0  0  0  0  0  0  0  0  0
   -2.3767   -2.0471   -0.1491 H   0  0  0  0  0  0  0  0  0  0  0  0
   -2.7677   -1.0115   -1.5841 H   0  0  0  0  0  0  0  0  0  0  0  0
   -4.0757   -1.5820   -0.4949 H   0  0  0  0  0  0  0  0  0  0  0  0
   -1.5436    1.5036    1.0405 H   0  0  0  0  0  0  0  0  0  0  0  0
   -0.1831   -0.9310    0.0470 H   0  0  0  0  0  0  0  0  0  0  0  0
   -0.5706    0.1069   -1.3798 H   0  0  0  0  0  0  0  0  0  0  0  0
    0.6121    2.0310   -0.3177 H   0  0  0  0  0  0  0  0  0  0  0  0
    0.9854    1.0542    1.1208 H   0  0  0  0  0  0  0  0  0  0  0  0
    3.7555   -0.7648   -0.7017 H   0  0  0  0  0  0  0  0  0  0  0  0
    1.7607   -1.4396    1.3828 H   0  0  0  0  0  0  0  0  0  0  0  0
    2.8122   -0.1180    2.0177 H   0  0  0  0  0  0  0  0  0  0  0  0
    4.5840   -1.3998    1.7083 H   0  0  0  0  0  0  0  0  0  0  0  0
    3.3009    1.4487   -2.1494 H   0  0  0  0  0  0  0  0  0  0  0  0
    1.5334    1.6155   -2.4594 H   0  0  0  0  0  0  0  0  0  0  0  0
    2.3474    0.0430   -2.7762 H   0  0  0  0  0  0  0  0  0  0  0  0
   -4.9307    0.0136    0.8934 H   0  0  0  0  0  0  0  0  0  0  0  0
   -3.7879    0.6059    2.1505 H   0  0  0  0  0  0  0  0  0  0  0  0
   -4.1807    1.6397    0.7186 H   0  0  0  0  0  0  0  0  0  0  0  0
  1  2  1  0
  2  3  2  0
  3  4  1  0
  4  5  1  0
  5  6  1  0
  6  7  2  0
  7  8  1  0
  8  9  1  0
  6 10  1  0
  2 11  1  0
  1 12  1  0
  1 13  1  0
  1 14  1  0
  3 15  1  0
  4 16  1  0
  4 17  1  0
  5 18  1  0
  5 19  1  0
  7 20  1  0
  8 21  1  0
  8 22  1  0
  9 23  1  0
 10 24  1  0
 10 25  1  0
 10 26  1  0
 11 27  1  0
 11 28  1  0
 11 29  1  0
M  END
>  <partial_charges>  (1) 
-0.0610000006855
-0.111500002444
-0.177799999714
-0.041700001806
-0.0452000014484
-0.0958999991417
-0.174500003457
0.163599997759
-0.597199976444
-0.0650999993086
-0.0610000006855
0.0408000014722
0.0408000014722
0.0408000014722
0.11779999733
0.0476000010967
0.0476000010967
0.0494000017643
0.0494000017643
0.133100003004
0.0262000001967
0.0262000001967
0.397199988365
0.0428000018001
0.0428000018001
0.0428000018001
0.0408000014722
0.0408000014722
0.0408000014722

>  <partial_bond_orders>  (1) 
1.0
2.0
1.0
1.0
1.0
2.0
1.0
1.0
1.0
1.0
1.0
1.0
1.0
1.0
1.0
1.0
1.0
1.0
1.0
1.0
1.0
1.0
1.0
1.0
1.0
1.0
1.0
1.0

>  <atom_types>  (1) 
c3
c2
c2
c3
c3
c2
c2
c3
oh
c3
c3
hc
hc
hc
ha
hc
hc
hc
hc
ha
h1
h1
ho
hc
hc
hc
hc
hc
hc

$$$$
conf_1
     RDKit          3D

 29 28  0  0  0  0  0  0  0  0999 V2000
   -3.8107   -0.5784    1.2304 C   0  0  0  0  0  0  0  0  0  0  0  0
   -2.6671   -0.2448    0.3074 C   0  0  0  0  0  0  0  0  0  0  0  0
   -1.5124   -0.9350    0.4369 C   0  0  0  0  0  0  0  0  0  0  0  0
   -0.2738   -0.6866   -0.3869 C   0  0  0  0  0  0  0  0  0  0  0  0
    0.6101    0.3793    0.2692 C   0  0  0  0  0  0  0  0  0  0  0  0
    1.8375    0.6508   -0.5780 C   0  0  0  0  0  0  0  0  0  0  0  0
    3.0076   -0.0048   -0.4061 C   0  0  0  0  0  0  0  0  0  0  0  0
    3.2568   -1.0322    0.6637 C   0  0  0  0  0  0  0  0  0  0  0  0
    3.3230   -0.4064    1.9144 O   0  0  0  0  0  0  0  0  0  0  0  0
    1.7300    1.6436   -1.7061 C   0  0  0  0  0  0  0  0  0  0  0  0
   -2.8445    0.8298   -0.7398 C   0  0  0  0  0  0  0  0  0  0  0  0
   -4.0958   -1.6445    1.1051 H   0  0  0  0  0  0  0  0  0  0  0  0
   -3.5044   -0.4060    2.2840 H   0  0  0  0  0  0  0  0  0  0  0  0
   -4.7041    0.0462    1.0217 H   0  0  0  0  0  0  0  0  0  0  0  0
   -1.4444   -1.7068    1.1999 H   0  0  0  0  0  0  0  0  0  0  0  0
   -0.5360   -0.3934   -1.4256 H   0  0  0  0  0  0  0  0  0  0  0  0
    0.2937   -1.6391   -0.4538 H   0  0  0  0  0  0  0  0  0  0  0  0
    0.8872    0.0608    1.2956 H   0  0  0  0  0  0  0  0  0  0  0  0
    0.0362    1.3228    0.3868 H   0  0  0  0  0  0  0  0  0  0  0  0
    3.8312    0.2066   -1.0840 H   0  0  0  0  0  0  0  0  0  0  0  0
    2.4550   -1.8025    0.6533 H   0  0  0  0  0  0  0  0  0  0  0  0
    4.2257   -1.5373    0.4552 H   0  0  0  0  0  0  0  0  0  0  0  0
    3.4629   -1.1314    2.5774 H   0  0  0  0  0  0  0  0  0  0  0  0
    0.7084    2.0749   -1.7681 H   0  0  0  0  0  0  0  0  0  0  0  0
    1.9538    1.1429   -2.6720 H   0  0  0  0  0  0  0  0  0  0  0  0
    2.4527    2.4718   -1.5478 H   0  0  0  0  0  0  0  0  0  0  0  0
   -2.7461    0.3898   -1.7541 H   0  0  0  0  0  0  0  0  0  0  0  0
   -3.8464    1.3020   -0.6718 H   0  0  0  0  0  0  0  0  0  0  0  0
   -2.0860    1.6279   -0.6070 H   0  0  0  0  0  0  0  0  0  0  0  0
  1  2  1  0
  2  3  2  0
  3  4  1  0
  4  5  1  0
  5  6  1  0
  6  7  2  0
  7  8  1  0
  8  9  1  0
  6 10  1  0
  2 11  1  0
  1 12  1  0
  1 13  1  0
  1 14  1  0
  3 15  1  0
  4 16  1  0
  4 17  1  0
  5 18  1  0
  5 19  1  0
  7 20  1  0
  8 21  1  0
  8 22  1  0
  9 23  1  0
 10 24  1  0
 10 25  1  0
 10 26  1  0
 11 27  1  0
 11 28  1  0
 11 29  1  0
M  END
>  <partial_charges>  (2) 
-0.0610000006855
-0.111500002444
-0.177799999714
-0.041700001806
-0.0452000014484
-0.0958999991417
-0.174500003457
0.163599997759
-0.597199976444
-0.0650999993086
-0.0610000006855
0.0408000014722
0.0408000014722
0.0408000014722
0.11779999733
0.0476000010967
0.0476000010967
0.0494000017643
0.0494000017643
0.133100003004
0.0262000001967
0.0262000001967
0.397199988365
0.0428000018001
0.0428000018001
0.0428000018001
0.0408000014722
0.0408000014722
0.0408000014722

>  <partial_bond_orders>  (2) 
1.0
2.0
1.0
1.0
1.0
2.0
1.0
1.0
1.0
1.0
1.0
1.0
1.0
1.0
1.0
1.0
1.0
1.0
1.0
1.0
1.0
1.0
1.0
1.0
1.0
1.0
1.0
1.0

>  <atom_types>  (2) 
c3
c2
c2
c3
c3
c2
c2
c3
oh
c3
c3
hc
hc
hc
ha
hc
hc
hc
hc
ha
h1
h1
ho
hc
hc
hc
hc
hc
hc

$$$$
conf_2
     RDKit          3D

 29 28  0  0  0  0  0  0  0  0999 V2000
   -3.8537   -1.0906    0.6288 C   0  0  0  0  0  0  0  0  0  0  0  0
   -2.6657   -0.2469    0.2449 C   0  0  0  0  0  0  0  0  0  0  0  0
   -1.5235   -0.3259    0.9650 C   0  0  0  0  0  0  0  0  0  0  0  0
   -0.2677    0.4497    0.6545 C   0  0  0  0  0  0  0  0  0  0  0  0
    0.6114   -0.3149   -0.3409 C   0  0  0  0  0  0  0  0  0  0  0  0
    1.8561    0.4827   -0.6764 C   0  0  0  0  0  0  0  0  0  0  0  0
    3.0183    0.3492    0.0019 C   0  0  0  0  0  0  0  0  0  0  0  0
    3.2406   -0.6288    1.1226 C   0  0  0  0  0  0  0  0  0  0  0  0
    3.2879   -1.9314    0.6114 O   0  0  0  0  0  0  0  0  0  0  0  0
    1.7763    1.5195   -1.7667 C   0  0  0  0  0  0  0  0  0  0  0  0
   -2.8150    0.6998   -0.9204 C   0  0  0  0  0  0  0  0  0  0  0  0
   -4.6848   -0.4308    0.9550 H   0  0  0  0  0  0  0  0  0  0  0  0
   -4.1870   -1.6832   -0.2489 H   0  0  0  0  0  0  0  0  0  0  0  0
   -3.6195   -1.7967    1.4542 H   0  0  0  0  0  0  0  0  0  0  0  0
   -1.4755   -1.0043    1.8128 H   0  0  0  0  0  0  0  0  0  0  0  0
    0.2947    0.5913    1.6018 H   0  0  0  0  0  0  0  0  0  0  0  0
   -0.5086    1.4626    0.2677 H   0  0  0  0  0  0  0  0  0  0  0  0
    0.8673   -1.3134    0.0706 H   0  0  0  0  0  0  0  0  0  0  0  0
    0.0424   -0.5065   -1.2751 H   0  0  0  0  0  0  0  0  0  0  0  0
    3.8557    0.9908   -0.2621 H   0  0  0  0  0  0  0  0  0  0  0  0
    2.4339   -0.5354    1.8821 H   0  0  0  0  0  0  0  0  0  0  0  0
    4.2097   -0.3933    1.6154 H   0  0  0  0  0  0  0  0  0  0  0  0
    3.4106   -2.5294    1.3938 H   0  0  0  0  0  0  0  0  0  0  0  0
    0.7590    1.5609   -2.2103 H   0  0  0  0  0  0  0  0  0  0  0  0
    2.5016    1.2750   -2.5713 H   0  0  0  0  0  0  0  0  0  0  0  0
    2.0145    2.5220   -1.3521 H   0  0  0  0  0  0  0  0  0  0  0  0
   -3.8215    0.6034   -1.3801 H   0  0  0  0  0  0  0  0  0  0  0  0
   -2.0603    0.4761   -1.7016 H   0  0  0  0  0  0  0  0  0  0  0  0
   -2.6971    1.7487   -0.5767 H   0  0  0  0  0  0  0  0  0  0  0  0
  1  2  1  0
  2  3  2  0
  3  4  1  0
  4  5  1  0
  5  6  1  0
  6  7  2  0
  7  8  1  0
  8  9  1  0
  6 10  1  0
  2 11  1  0
  1 12  1  0
  1 13  1  0
  1 14  1  0
  3 15  1  0
  4 16  1  0
  4 17  1  0
  5 18  1  0
  5 19  1  0
  7 20  1  0
  8 21  1  0
  8 22  1  0
  9 23  1  0
 10 24  1  0
 10 25  1  0
 10 26  1  0
 11 27  1  0
 11 28  1  0
 11 29  1  0
M  END
>  <partial_charges>  (3) 
-0.0610000006855
-0.111500002444
-0.177799999714
-0.041700001806
-0.0452000014484
-0.0958999991417
-0.174500003457
0.163599997759
-0.597199976444
-0.0650999993086
-0.0610000006855
0.0408000014722
0.0408000014722
0.0408000014722
0.11779999733
0.0476000010967
0.0476000010967
0.0494000017643
0.0494000017643
0.133100003004
0.0262000001967
0.0262000001967
0.397199988365
0.0428000018001
0.0428000018001
0.0428000018001
0.0408000014722
0.0408000014722
0.0408000014722

>  <partial_bond_orders>  (3) 
1.0
2.0
1.0
1.0
1.0
2.0
1.0
1.0
1.0
1.0
1.0
1.0
1.0
1.0
1.0
1.0
1.0
1.0
1.0
1.0
1.0
1.0
1.0
1.0
1.0
1.0
1.0
1.0

>  <atom_types>  (3) 
c3
c2
c2
c3
c3
c2
c2
c3
oh
c3
c3
hc
hc
hc
ha
hc
hc
hc
hc
ha
h1
h1
ho
hc
hc
hc
hc
hc
hc

$$$$
conf_3
     RDKit          3D

 29 28  0  0  0  0  0  0  0  0999 V2000
   -2.8300    1.4909    0.6864 C   0  0  0  0  0  0  0  0  0  0  0  0
   -2.7957    0.0245    0.3263 C   0  0  0  0  0  0  0  0  0  0  0  0
   -1.6662   -0.5676   -0.1161 C   0  0  0  0  0  0  0  0  0  0  0  0
   -0.3611    0.1719   -0.2867 C   0  0  0  0  0  0  0  0  0  0  0  0
    0.7418   -0.7589   -0.8025 C   0  0  0  0  0  0  0  0  0  0  0  0
    2.0469   -0.0044   -0.9663 C   0  0  0  0  0  0  0  0  0  0  0  0
    2.9663    0.0868    0.0204 C   0  0  0  0  0  0  0  0  0  0  0  0
    2.8249   -0.5792    1.3624 C   0  0  0  0  0  0  0  0  0  0  0  0
    3.9172   -0.2415    2.1706 O   0  0  0  0  0  0  0  0  0  0  0  0
    2.3081    0.7201   -2.2612 C   0  0  0  0  0  0  0  0  0  0  0  0
   -4.0448   -0.8074    0.4601 C   0  0  0  0  0  0  0  0  0  0  0  0
   -2.5640    2.1053   -0.1992 H   0  0  0  0  0  0  0  0  0  0  0  0
   -3.8387    1.8030    1.0283 H   0  0  0  0  0  0  0  0  0  0  0  0
   -2.1119    1.6967    1.5076 H   0  0  0  0  0  0  0  0  0  0  0  0
   -1.6958   -1.6274   -0.3615 H   0  0  0  0  0  0  0  0  0  0  0  0
   -0.0555    0.6015    0.6909 H   0  0  0  0  0  0  0  0  0  0  0  0
   -0.5046    1.0019   -1.0124 H   0  0  0  0  0  0  0  0  0  0  0  0
    0.8624   -1.6258   -0.1190 H   0  0  0  0  0  0  0  0  0  0  0  0
    0.4348   -1.1771   -1.7861 H   0  0  0  0  0  0  0  0  0  0  0  0
    3.8670    0.6701   -0.1584 H   0  0  0  0  0  0  0  0  0  0  0  0
    1.8858   -0.2400    1.8514 H   0  0  0  0  0  0  0  0  0  0  0  0
    2.7963   -1.6826    1.2244 H   0  0  0  0  0  0  0  0  0  0  0  0
    3.7737   -0.7061    3.0359 H   0  0  0  0  0  0  0  0  0  0  0  0
    3.2251    0.3158   -2.7397 H   0  0  0  0  0  0  0  0  0  0  0  0
    2.4462    1.8046   -2.0651 H   0  0  0  0  0  0  0  0  0  0  0  0
    1.4605    0.6014   -2.9686 H   0  0  0  0  0  0  0  0  0  0  0  0
   -4.9007   -0.2065    0.8320 H   0  0  0  0  0  0  0  0  0  0  0  0
   -4.3210   -1.2312   -0.5286 H   0  0  0  0  0  0  0  0  0  0  0  0
   -3.8671   -1.6389    1.1747 H   0  0  0  0  0  0  0  0  0  0  0  0
  1  2  1  0
  2  3  2  0
  3  4  1  0
  4  5  1  0
  5  6  1  0
  6  7  2  0
  7  8  1  0
  8  9  1  0
  6 10  1  0
  2 11  1  0
  1 12  1  0
  1 13  1  0
  1 14  1  0
  3 15  1  0
  4 16  1  0
  4 17  1  0
  5 18  1  0
  5 19  1  0
  7 20  1  0
  8 21  1  0
  8 22  1  0
  9 23  1  0
 10 24  1  0
 10 25  1  0
 10 26  1  0
 11 27  1  0
 11 28  1  0
 11 29  1  0
M  END
>  <partial_charges>  (4) 
-0.0610000006855
-0.111500002444
-0.177799999714
-0.041700001806
-0.0452000014484
-0.0958999991417
-0.174500003457
0.163599997759
-0.597199976444
-0.0650999993086
-0.0610000006855
0.0408000014722
0.0408000014722
0.0408000014722
0.11779999733
0.0476000010967
0.0476000010967
0.0494000017643
0.0494000017643
0.133100003004
0.0262000001967
0.0262000001967
0.397199988365
0.0428000018001
0.0428000018001
0.0428000018001
0.0408000014722
0.0408000014722
0.0408000014722

>  <partial_bond_orders>  (4) 
1.0
2.0
1.0
1.0
1.0
2.0
1.0
1.0
1.0
1.0
1.0
1.0
1.0
1.0
1.0
1.0
1.0
1.0
1.0
1.0
1.0
1.0
1.0
1.0
1.0
1.0
1.0
1.0

>  <atom_types>  (4) 
c3
c2
c2
c3
c3
c2
c2
c3
oh
c3
c3
hc
hc
hc
ha
hc
hc
hc
hc
ha
h1
h1
ho
hc
hc
hc
hc
hc
hc

$$$$
conf_4
     RDKit          3D

 29 28  0  0  0  0  0  0  0  0999 V2000
   -2.5771   -1.2938   -0.0024 C   0  0  0  0  0  0  0  0  0  0  0  0
   -2.0234    0.0108    0.5196 C   0  0  0  0  0  0  0  0  0  0  0  0
   -1.1814    0.7751   -0.2103 C   0  0  0  0  0  0  0  0  0  0  0  0
   -0.6644    0.4112   -1.5815 C   0  0  0  0  0  0  0  0  0  0  0  0
    0.6095   -0.4438   -1.5106 C   0  0  0  0  0  0  0  0  0  0  0  0
    1.7624    0.3064   -0.8644 C   0  0  0  0  0  0  0  0  0  0  0  0
    2.1979    0.0495    0.3895 C   0  0  0  0  0  0  0  0  0  0  0  0
    1.6352   -1.0329    1.2746 C   0  0  0  0  0  0  0  0  0  0  0  0
    2.2800   -1.0270    2.5189 O   0  0  0  0  0  0  0  0  0  0  0  0
    2.4283    1.4135   -1.6398 C   0  0  0  0  0  0  0  0  0  0  0  0
   -2.4177    0.4888    1.8932 C   0  0  0  0  0  0  0  0  0  0  0  0
   -1.7516   -1.9949   -0.2401 H   0  0  0  0  0  0  0  0  0  0  0  0
   -3.2315   -1.7859    0.7466 H   0  0  0  0  0  0  0  0  0  0  0  0
   -3.1844   -1.1109   -0.9132 H   0  0  0  0  0  0  0  0  0  0  0  0
   -0.8213    1.7097    0.2130 H   0  0  0  0  0  0  0  0  0  0  0  0
   -1.4404   -0.1221   -2.1693 H   0  0  0  0  0  0  0  0  0  0  0  0
   -0.4461    1.3496   -2.1349 H   0  0  0  0  0  0  0  0  0  0  0  0
    0.3937   -1.4031   -1.0003 H   0  0  0  0  0  0  0  0  0  0  0  0
    0.9064   -0.7155   -2.5464 H   0  0  0  0  0  0  0  0  0  0  0  0
    3.0126    0.6488    0.7904 H   0  0  0  0  0  0  0  0  0  0  0  0
    1.8068   -2.0208    0.7982 H   0  0  0  0  0  0  0  0  0  0  0  0
    0.5411   -0.8928    1.4139 H   0  0  0  0  0  0  0  0  0  0  0  0
    1.9098   -0.2582    3.0270 H   0  0  0  0  0  0  0  0  0  0  0  0
    3.5131    1.2000   -1.7455 H   0  0  0  0  0  0  0  0  0  0  0  0
    1.9932    1.5109   -2.6567 H   0  0  0  0  0  0  0  0  0  0  0  0
    2.2956    2.3787   -1.1066 H   0  0  0  0  0  0  0  0  0  0  0  0
   -1.5119    0.5933    2.5276 H   0  0  0  0  0  0  0  0  0  0  0  0
   -3.1112   -0.2193    2.3924 H   0  0  0  0  0  0  0  0  0  0  0  0
   -2.9231    1.4748    1.8169 H   0  0  0  0  0  0  0  0  0  0  0  0
  1  2  1  0
  2  3  2  0
  3  4  1  0
  4  5  1  0
  5  6  1  0
  6  7  2  0
  7  8  1  0
  8  9  1  0
  6 10  1  0
  2 11  1  0
  1 12  1  0
  1 13  1  0
  1 14  1  0
  3 15  1  0
  4 16  1  0
  4 17  1  0
  5 18  1  0
  5 19  1  0
  7 20  1  0
  8 21  1  0
  8 22  1  0
  9 23  1  0
 10 24  1  0
 10 25  1  0
 10 26  1  0
 11 27  1  0
 11 28  1  0
 11 29  1  0
M  END
>  <partial_charges>  (5) 
-0.0610000006855
-0.111500002444
-0.177799999714
-0.041700001806
-0.0452000014484
-0.0958999991417
-0.174500003457
0.163599997759
-0.597199976444
-0.0650999993086
-0.0610000006855
0.0408000014722
0.0408000014722
0.0408000014722
0.11779999733
0.0476000010967
0.0476000010967
0.0494000017643
0.0494000017643
0.133100003004
0.0262000001967
0.0262000001967
0.397199988365
0.0428000018001
0.0428000018001
0.0428000018001
0.0408000014722
0.0408000014722
0.0408000014722

>  <partial_bond_orders>  (5) 
1.0
2.0
1.0
1.0
1.0
2.0
1.0
1.0
1.0
1.0
1.0
1.0
1.0
1.0
1.0
1.0
1.0
1.0
1.0
1.0
1.0
1.0
1.0
1.0
1.0
1.0
1.0
1.0

>  <atom_types>  (5) 
c3
c2
c2
c3
c3
c2
c2
c3
oh
c3
c3
hc
hc
hc
ha
hc
hc
hc
hc
ha
h1
h1
ho
hc
hc
hc
hc
hc
hc

$$$$
conf_5
     RDKit          3D

 29 28  0  0  0  0  0  0  0  0999 V2000
   -3.9245   -1.2518   -0.0687 C   0  0  0  0  0  0  0  0  0  0  0  0
   -2.7412   -0.3432    0.1417 C   0  0  0  0  0  0  0  0  0  0  0  0
   -1.5413   -0.6581   -0.3932 C   0  0  0  0  0  0  0  0  0  0  0  0
   -0.3147    0.2055   -0.2226 C   0  0  0  0  0  0  0  0  0  0  0  0
    0.8995   -0.4053   -0.9318 C   0  0  0  0  0  0  0  0  0  0  0  0
    2.1277    0.4633   -0.7386 C   0  0  0  0  0  0  0  0  0  0  0  0
    3.0718    0.2100    0.1965 C   0  0  0  0  0  0  0  0  0  0  0  0
    3.0641   -0.9785    1.1241 C   0  0  0  0  0  0  0  0  0  0  0  0
    1.9557   -0.9374    1.9805 O   0  0  0  0  0  0  0  0  0  0  0  0
    2.2790    1.6960   -1.5918 C   0  0  0  0  0  0  0  0  0  0  0  0
   -2.9392    0.9099    0.9576 C   0  0  0  0  0  0  0  0  0  0  0  0
   -3.6680   -2.1422   -0.6820 H   0  0  0  0  0  0  0  0  0  0  0  0
   -4.3010   -1.6022    0.9152 H   0  0  0  0  0  0  0  0  0  0  0  0
   -4.7325   -0.6928   -0.5855 H   0  0  0  0  0  0  0  0  0  0  0  0
   -1.4475   -1.5731   -0.9738 H   0  0  0  0  0  0  0  0  0  0  0  0
   -0.0930    0.3141    0.8603 H   0  0  0  0  0  0  0  0  0  0  0  0
   -0.5176    1.2126   -0.6471 H   0  0  0  0  0  0  0  0  0  0  0  0
    1.0681   -1.4401   -0.5682 H   0  0  0  0  0  0  0  0  0  0  0  0
    0.6845   -0.4874   -2.0198 H   0  0  0  0  0  0  0  0  0  0  0  0
    3.9156    0.8902    0.2846 H   0  0  0  0  0  0  0  0  0  0  0  0
    4.0031   -0.9884    1.7220 H   0  0  0  0  0  0  0  0  0  0  0  0
    3.0434   -1.9190    0.5353 H   0  0  0  0  0  0  0  0  0  0  0  0
    2.1265   -0.2069    2.6311 H   0  0  0  0  0  0  0  0  0  0  0  0
    3.2210    1.6352   -2.1769 H   0  0  0  0  0  0  0  0  0  0  0  0
    1.4319    1.8008   -2.3022 H   0  0  0  0  0  0  0  0  0  0  0  0
    2.3069    2.5997   -0.9468 H   0  0  0  0  0  0  0  0  0  0  0  0
   -3.9903    0.9922    1.3070 H   0  0  0  0  0  0  0  0  0  0  0  0
   -2.7087    1.8053    0.3430 H   0  0  0  0  0  0  0  0  0  0  0  0
   -2.2793    0.8917    1.8502 H   0  0  0  0  0  0  0  0  0  0  0  0
  1  2  1  0
  2  3  2  0
  3  4  1  0
  4  5  1  0
  5  6  1  0
  6  7  2  0
  7  8  1  0
  8  9  1  0
  6 10  1  0
  2 11  1  0
  1 12  1  0
  1 13  1  0
  1 14  1  0
  3 15  1  0
  4 16  1  0
  4 17  1  0
  5 18  1  0
  5 19  1  0
  7 20  1  0
  8 21  1  0
  8 22  1  0
  9 23  1  0
 10 24  1  0
 10 25  1  0
 10 26  1  0
 11 27  1  0
 11 28  1  0
 11 29  1  0
M  END
>  <partial_charges>  (6) 
-0.0610000006855
-0.111500002444
-0.177799999714
-0.041700001806
-0.0452000014484
-0.0958999991417
-0.174500003457
0.163599997759
-0.597199976444
-0.0650999993086
-0.0610000006855
0.0408000014722
0.0408000014722
0.0408000014722
0.11779999733
0.0476000010967
0.0476000010967
0.0494000017643
0.0494000017643
0.133100003004
0.0262000001967
0.0262000001967
0.397199988365
0.0428000018001
0.0428000018001
0.0428000018001
0.0408000014722
0.0408000014722
0.0408000014722

>  <partial_bond_orders>  (6) 
1.0
2.0
1.0
1.0
1.0
2.0
1.0
1.0
1.0
1.0
1.0
1.0
1.0
1.0
1.0
1.0
1.0
1.0
1.0
1.0
1.0
1.0
1.0
1.0
1.0
1.0
1.0
1.0

>  <atom_types>  (6) 
c3
c2
c2
c3
c3
c2
c2
c3
oh
c3
c3
hc
hc
hc
ha
hc
hc
hc
hc
ha
h1
h1
ho
hc
hc
hc
hc
hc
hc

$$$$
conf_6
     RDKit          3D

 29 28  0  0  0  0  0  0  0  0999 V2000
   -3.9719   -0.9400    0.5985 C   0  0  0  0  0  0  0  0  0  0  0  0
   -2.7509   -0.1253    0.2575 C   0  0  0  0  0  0  0  0  0  0  0  0
   -1.6096   -0.3573    0.9431 C   0  0  0  0  0  0  0  0  0  0  0  0
   -0.3025    0.3503    0.6871 C   0  0  0  0  0  0  0  0  0  0  0  0
    0.5136   -0.3860   -0.3805 C   0  0  0  0  0  0  0  0  0  0  0  0
    1.8094    0.3478   -0.6637 C   0  0  0  0  0  0  0  0  0  0  0  0
    2.9606    0.0778   -0.0091 C   0  0  0  0  0  0  0  0  0  0  0  0
    3.1008   -1.0018    1.0337 C   0  0  0  0  0  0  0  0  0  0  0  0
    4.3920   -0.9857    1.5787 O   0  0  0  0  0  0  0  0  0  0  0  0
    1.8015    1.4649   -1.6746 C   0  0  0  0  0  0  0  0  0  0  0  0
   -2.8374    0.9309   -0.8195 C   0  0  0  0  0  0  0  0  0  0  0  0
   -3.7632   -2.0175    0.4278 H   0  0  0  0  0  0  0  0  0  0  0  0
   -4.2397   -0.7868    1.6655 H   0  0  0  0  0  0  0  0  0  0  0  0
   -4.8455   -0.6528   -0.0229 H   0  0  0  0  0  0  0  0  0  0  0  0
   -1.6075   -1.1214    1.7168 H   0  0  0  0  0  0  0  0  0  0  0  0
   -0.4708    1.4076    0.3915 H   0  0  0  0  0  0  0  0  0  0  0  0
    0.2726    0.3683    1.6371 H   0  0  0  0  0  0  0  0  0  0  0  0
    0.7030   -1.4319   -0.0591 H   0  0  0  0  0  0  0  0  0  0  0  0
   -0.0746   -0.4571   -1.3197 H   0  0  0  0  0  0  0  0  0  0  0  0
    3.8444    0.6671   -0.2436 H   0  0  0  0  0  0  0  0  0  0  0  0
    2.3751   -0.8230    1.8536 H   0  0  0  0  0  0  0  0  0  0  0  0
    2.8896   -1.9986    0.5849 H   0  0  0  0  0  0  0  0  0  0  0  0
    4.9914   -1.3990    0.9033 H   0  0  0  0  0  0  0  0  0  0  0  0
    2.1144    2.4141   -1.1900 H   0  0  0  0  0  0  0  0  0  0  0  0
    0.7881    1.6131   -2.1041 H   0  0  0  0  0  0  0  0  0  0  0  0
    2.5036    1.2281   -2.5018 H   0  0  0  0  0  0  0  0  0  0  0  0
   -2.0975    0.7281   -1.6202 H   0  0  0  0  0  0  0  0  0  0  0  0
   -2.6458    1.9333   -0.3828 H   0  0  0  0  0  0  0  0  0  0  0  0
   -3.8434    0.9527   -1.2875 H   0  0  0  0  0  0  0  0  0  0  0  0
  1  2  1  0
  2  3  2  0
  3  4  1  0
  4  5  1  0
  5  6  1  0
  6  7  2  0
  7  8  1  0
  8  9  1  0
  6 10  1  0
  2 11  1  0
  1 12  1  0
  1 13  1  0
  1 14  1  0
  3 15  1  0
  4 16  1  0
  4 17  1  0
  5 18  1  0
  5 19  1  0
  7 20  1  0
  8 21  1  0
  8 22  1  0
  9 23  1  0
 10 24  1  0
 10 25  1  0
 10 26  1  0
 11 27  1  0
 11 28  1  0
 11 29  1  0
M  END
>  <partial_charges>  (7) 
-0.0610000006855
-0.111500002444
-0.177799999714
-0.041700001806
-0.0452000014484
-0.0958999991417
-0.174500003457
0.163599997759
-0.597199976444
-0.0650999993086
-0.0610000006855
0.0408000014722
0.0408000014722
0.0408000014722
0.11779999733
0.0476000010967
0.0476000010967
0.0494000017643
0.0494000017643
0.133100003004
0.0262000001967
0.0262000001967
0.397199988365
0.0428000018001
0.0428000018001
0.0428000018001
0.0408000014722
0.0408000014722
0.0408000014722

>  <partial_bond_orders>  (7) 
1.0
2.0
1.0
1.0
1.0
2.0
1.0
1.0
1.0
1.0
1.0
1.0
1.0
1.0
1.0
1.0
1.0
1.0
1.0
1.0
1.0
1.0
1.0
1.0
1.0
1.0
1.0
1.0

>  <atom_types>  (7) 
c3
c2
c2
c3
c3
c2
c2
c3
oh
c3
c3
hc
hc
hc
ha
hc
hc
hc
hc
ha
h1
h1
ho
hc
hc
hc
hc
hc
hc

$$$$
conf_7
     RDKit          3D

 29 28  0  0  0  0  0  0  0  0999 V2000
   -3.0594   -1.1169   -0.6196 C   0  0  0  0  0  0  0  0  0  0  0  0
   -2.8054    0.0185    0.3436 C   0  0  0  0  0  0  0  0  0  0  0  0
   -1.5779    0.5616    0.4867 C   0  0  0  0  0  0  0  0  0  0  0  0
   -0.3727    0.0895   -0.2903 C   0  0  0  0  0  0  0  0  0  0  0  0
    0.8787    0.8914    0.0835 C   0  0  0  0  0  0  0  0  0  0  0  0
    2.0812    0.4035   -0.7006 C   0  0  0  0  0  0  0  0  0  0  0  0
    2.9051   -0.5691   -0.2492 C   0  0  0  0  0  0  0  0  0  0  0  0
    2.7731   -1.2438    1.0920 C   0  0  0  0  0  0  0  0  0  0  0  0
    3.1079   -0.3566    2.1243 O   0  0  0  0  0  0  0  0  0  0  0  0
    2.3333    0.9776   -2.0707 C   0  0  0  0  0  0  0  0  0  0  0  0
   -3.9404    0.5661    1.1695 C   0  0  0  0  0  0  0  0  0  0  0  0
   -4.1230   -1.4334   -0.6048 H   0  0  0  0  0  0  0  0  0  0  0  0
   -2.4378   -1.9944   -0.3439 H   0  0  0  0  0  0  0  0  0  0  0  0
   -2.8117   -0.7993   -1.6541 H   0  0  0  0  0  0  0  0  0  0  0  0
   -1.4492    1.3777    1.1950 H   0  0  0  0  0  0  0  0  0  0  0  0
   -0.1998   -0.9867   -0.0761 H   0  0  0  0  0  0  0  0  0  0  0  0
   -0.5700    0.2100   -1.3777 H   0  0  0  0  0  0  0  0  0  0  0  0
    1.0588    0.8306    1.1770 H   0  0  0  0  0  0  0  0  0  0  0  0
    0.7045    1.9658   -0.1445 H   0  0  0  0  0  0  0  0  0  0  0  0
    3.7197   -0.9042   -0.8868 H   0  0  0  0  0  0  0  0  0  0  0  0
    1.7356   -1.6075    1.2398 H   0  0  0  0  0  0  0  0  0  0  0  0
    3.4415   -2.1334    1.1266 H   0  0  0  0  0  0  0  0  0  0  0  0
    4.0940   -0.2440    2.0938 H   0  0  0  0  0  0  0  0  0  0  0  0
    2.3067    0.1672   -2.8299 H   0  0  0  0  0  0  0  0  0  0  0  0
    1.5635    1.7308   -2.3411 H   0  0  0  0  0  0  0  0  0  0  0  0
    3.3293    1.4681   -2.0949 H   0  0  0  0  0  0  0  0  0  0  0  0
   -3.7083    0.4507    2.2495 H   0  0  0  0  0  0  0  0  0  0  0  0
   -4.0840    1.6437    0.9422 H   0  0  0  0  0  0  0  0  0  0  0  0
   -4.8933    0.0368    0.9604 H   0  0  0  0  0  0  0  0  0  0  0  0
  1  2  1  0
  2  3  2  0
  3  4  1  0
  4  5  1  0
  5  6  1  0
  6  7  2  0
  7  8  1  0
  8  9  1  0
  6 10  1  0
  2 11  1  0
  1 12  1  0
  1 13  1  0
  1 14  1  0
  3 15  1  0
  4 16  1  0
  4 17  1  0
  5 18  1  0
  5 19  1  0
  7 20  1  0
  8 21  1  0
  8 22  1  0
  9 23  1  0
 10 24  1  0
 10 25  1  0
 10 26  1  0
 11 27  1  0
 11 28  1  0
 11 29  1  0
M  END
>  <partial_charges>  (8) 
-0.0610000006855
-0.111500002444
-0.177799999714
-0.041700001806
-0.0452000014484
-0.0958999991417
-0.174500003457
0.163599997759
-0.597199976444
-0.0650999993086
-0.0610000006855
0.0408000014722
0.0408000014722
0.0408000014722
0.11779999733
0.0476000010967
0.0476000010967
0.0494000017643
0.0494000017643
0.133100003004
0.0262000001967
0.0262000001967
0.397199988365
0.0428000018001
0.0428000018001
0.0428000018001
0.0408000014722
0.0408000014722
0.0408000014722

>  <partial_bond_orders>  (8) 
1.0
2.0
1.0
1.0
1.0
2.0
1.0
1.0
1.0
1.0
1.0
1.0
1.0
1.0
1.0
1.0
1.0
1.0
1.0
1.0
1.0
1.0
1.0
1.0
1.0
1.0
1.0
1.0

>  <atom_types>  (8) 
c3
c2
c2
c3
c3
c2
c2
c3
oh
c3
c3
hc
hc
hc
ha
hc
hc
hc
hc
ha
h1
h1
ho
hc
hc
hc
hc
hc
hc

$$$$
conf_8
     RDKit          3D

 29 28  0  0  0  0  0  0  0  0999 V2000
   -3.9379    0.4247    1.0946 C   0  0  0  0  0  0  0  0  0  0  0  0
   -2.7472   -0.1112    0.3428 C   0  0  0  0  0  0  0  0  0  0  0  0
   -1.5743    0.5514    0.4278 C   0  0  0  0  0  0  0  0  0  0  0  0
   -0.3210    0.1020   -0.2840 C   0  0  0  0  0  0  0  0  0  0  0  0
    0.8518    1.0459    0.0055 C   0  0  0  0  0  0  0  0  0  0  0  0
    2.1080    0.5743   -0.7015 C   0  0  0  0  0  0  0  0  0  0  0  0
    3.0768   -0.1422   -0.0867 C   0  0  0  0  0  0  0  0  0  0  0  0
    3.0700   -0.5194    1.3731 C   0  0  0  0  0  0  0  0  0  0  0  0
    1.9931   -1.3668    1.6658 O   0  0  0  0  0  0  0  0  0  0  0  0
    2.2619    0.8717   -2.1706 C   0  0  0  0  0  0  0  0  0  0  0  0
   -2.8865   -1.3678   -0.4836 C   0  0  0  0  0  0  0  0  0  0  0  0
   -4.1720    1.4520    0.7434 H   0  0  0  0  0  0  0  0  0  0  0  0
   -3.7125    0.4552    2.1817 H   0  0  0  0  0  0  0  0  0  0  0  0
   -4.8375   -0.2076    0.9439 H   0  0  0  0  0  0  0  0  0  0  0  0
   -1.5280    1.4516    1.0375 H   0  0  0  0  0  0  0  0  0  0  0  0
   -0.0597   -0.9243    0.0506 H   0  0  0  0  0  0  0  0  0  0  0  0
   -0.5125    0.0817   -1.3787 H   0  0  0  0  0  0  0  0  0  0  0  0
    0.5975    2.0666   -0.3554 H   0  0  0  0  0  0  0  0  0  0  0  0
    1.0058    1.1318    1.1011 H   0  0  0  0  0  0  0  0  0  0  0  0
    3.9404   -0.4585   -0.6667 H   0  0  0  0  0  0  0  0  0  0  0  0
    3.0047    0.3939    2.0004 H   0  0  0  0  0  0  0  0  0  0  0  0
    4.0284   -1.0241    1.6301 H   0  0  0  0  0  0  0  0  0  0  0  0
    2.2050   -2.2467    1.2572 H   0  0  0  0  0  0  0  0  0  0  0  0
    2.3354   -0.0780   -2.7417 H   0  0  0  0  0  0  0  0  0  0  0  0
    3.1814    1.4715   -2.3387 H   0  0  0  0  0  0  0  0  0  0  0  0
    1.3939    1.4455   -2.5586 H   0  0  0  0  0  0  0  0  0  0  0  0
   -2.6515   -1.1507   -1.5467 H   0  0  0  0  0  0  0  0  0  0  0  0
   -3.9186   -1.7732   -0.4378 H   0  0  0  0  0  0  0  0  0  0  0  0
   -2.1951   -2.1495   -0.1048 H   0  0  0  0  0  0  0  0  0  0  0  0
  1  2  1  0
  2  3  2  0
  3  4  1  0
  4  5  1  0
  5  6  1  0
  6  7  2  0
  7  8  1  0
  8  9  1  0
  6 10  1  0
  2 11  1  0
  1 12  1  0
  1 13  1  0
  1 14  1  0
  3 15  1  0
  4 16  1  0
  4 17  1  0
  5 18  1  0
  5 19  1  0
  7 20  1  0
  8 21  1  0
  8 22  1  0
  9 23  1  0
 10 24  1  0
 10 25  1  0
 10 26  1  0
 11 27  1  0
 11 28  1  0
 11 29  1  0
M  END
>  <partial_charges>  (9) 
-0.0610000006855
-0.111500002444
-0.177799999714
-0.041700001806
-0.0452000014484
-0.0958999991417
-0.174500003457
0.163599997759
-0.597199976444
-0.0650999993086
-0.0610000006855
0.0408000014722
0.0408000014722
0.0408000014722
0.11779999733
0.0476000010967
0.0476000010967
0.0494000017643
0.0494000017643
0.133100003004
0.0262000001967
0.0262000001967
0.397199988365
0.0428000018001
0.0428000018001
0.0428000018001
0.0408000014722
0.0408000014722
0.0408000014722

>  <partial_bond_orders>  (9) 
1.0
2.0
1.0
1.0
1.0
2.0
1.0
1.0
1.0
1.0
1.0
1.0
1.0
1.0
1.0
1.0
1.0
1.0
1.0
1.0
1.0
1.0
1.0
1.0
1.0
1.0
1.0
1.0

>  <atom_types>  (9) 
c3
c2
c2
c3
c3
c2
c2
c3
oh
c3
c3
hc
hc
hc
ha
hc
hc
hc
hc
ha
h1
h1
ho
hc
hc
hc
hc
hc
hc

$$$$
