conf_0
     RDKit          3D

 41 40  0  0  0  0  0  0  0  0999 V2000
    3.1328    2.9264   -0.1532 C   0  0  0  0  0  0  0  0  0  0  0  0
    2.5823    1.5233    0.0470 C   0  0  0  0  0  0  0  0  0  0  0  0
    2.3686    0.9318   -1.2134 O   0  0  0  0  0  0  0  0  0  0  0  0
    2.0549   -0.7430   -1.0362 P   0  0  0  0  0  0  0  0  0  0  0  0
    0.8351   -1.1732   -2.1838 S   0  0  0  0  0  0  0  0  0  0  0  0
    3.4468   -1.6443   -1.4446 O   0  0  0  0  0  0  0  0  0  0  0  0
    4.5354   -1.1808   -0.6849 C   0  0  0  0  0  0  0  0  0  0  0  0
    5.7497   -2.0477   -0.9792 C   0  0  0  0  0  0  0  0  0  0  0  0
    1.4125   -1.3079    0.9238 S   0  0  0  0  0  0  0  0  0  0  0  0
   -0.2792   -0.6440    0.7841 C   0  0  0  0  0  0  0  0  0  0  0  0
   -0.9852   -0.4757    2.4519 S   0  0  0  0  0  0  0  0  0  0  0  0
   -2.8338    0.2915    1.7448 P   0  0  0  0  0  0  0  0  0  0  0  0
   -3.8186    0.7202    3.1020 S   0  0  0  0  0  0  0  0  0  0  0  0
   -3.6450   -0.8487    0.7558 O   0  0  0  0  0  0  0  0  0  0  0  0
   -3.7023   -2.0915    1.4172 C   0  0  0  0  0  0  0  0  0  0  0  0
   -4.5070   -3.0645    0.5700 C   0  0  0  0  0  0  0  0  0  0  0  0
   -2.4877    1.7148    0.8661 O   0  0  0  0  0  0  0  0  0  0  0  0
   -3.4090    1.8365   -0.1900 C   0  0  0  0  0  0  0  0  0  0  0  0
   -3.1874    3.1680   -0.8900 C   0  0  0  0  0  0  0  0  0  0  0  0
    3.2953    3.4109    0.8327 H   0  0  0  0  0  0  0  0  0  0  0  0
    2.4142    3.5369   -0.7404 H   0  0  0  0  0  0  0  0  0  0  0  0
    4.1009    2.8799   -0.6958 H   0  0  0  0  0  0  0  0  0  0  0  0
    3.3167    0.9561    0.6593 H   0  0  0  0  0  0  0  0  0  0  0  0
    1.6249    1.6096    0.6012 H   0  0  0  0  0  0  0  0  0  0  0  0
    4.7886   -0.1338   -0.9634 H   0  0  0  0  0  0  0  0  0  0  0  0
    4.3243   -1.2499    0.4058 H   0  0  0  0  0  0  0  0  0  0  0  0
    6.0022   -1.9947   -2.0596 H   0  0  0  0  0  0  0  0  0  0  0  0
    5.5384   -3.1033   -0.7056 H   0  0  0  0  0  0  0  0  0  0  0  0
    6.6191   -1.6896   -0.3883 H   0  0  0  0  0  0  0  0  0  0  0  0
   -0.2709    0.3460    0.2860 H   0  0  0  0  0  0  0  0  0  0  0  0
   -0.8952   -1.3500    0.1901 H   0  0  0  0  0  0  0  0  0  0  0  0
   -2.6848   -2.5179    1.5488 H   0  0  0  0  0  0  0  0  0  0  0  0
   -4.2043   -2.0034    2.4062 H   0  0  0  0  0  0  0  0  0  0  0  0
   -4.0242   -3.1938   -0.4220 H   0  0  0  0  0  0  0  0  0  0  0  0
   -5.5388   -2.6795    0.4259 H   0  0  0  0  0  0  0  0  0  0  0  0
   -4.5582   -4.0513    1.0769 H   0  0  0  0  0  0  0  0  0  0  0  0
   -3.2523    1.0261   -0.9368 H   0  0  0  0  0  0  0  0  0  0  0  0
   -4.4581    1.8128    0.1850 H   0  0  0  0  0  0  0  0  0  0  0  0
   -3.3438    4.0037   -0.1752 H   0  0  0  0  0  0  0  0  0  0  0  0
   -2.1523    3.2193   -1.2901 H   0  0  0  0  0  0  0  0  0  0  0  0
   -3.9045    3.2743   -1.7313 H   0  0  0  0  0  0  0  0  0  0  0  0
  1  2  1  0
  2  3  1  0
  3  4  1  0
  4  5  2  0
  4  6  1  0
  6  7  1  0
  7  8  1  0
  4  9  1  0
  9 10  1  0
 10 11  1  0
 11 12  1  0
 12 13  2  0
 12 14  1  0
 14 15  1  0
 15 16  1  0
 12 17  1  0
 17 18  1  0
 18 19  1  0
  1 20  1  0
  1 21  1  0
  1 22  1  0
  2 23  1  0
  2 24  1  0
  7 25  1  0
  7 26  1  0
  8 27  1  0
  8 28  1  0
  8 29  1  0
 10 30  1  0
 10 31  1  0
 15 32  1  0
 15 33  1  0
 16 34  1  0
 16 35  1  0
 16 36  1  0
 18 37  1  0
 18 38  1  0
 19 39  1  0
 19 40  1  0
 19 41  1  0
M  END
>  <partial_charges>  (1) 
-0.107799999416
0.14090000093
-0.483300000429
0.828199982643
-0.468600004911
-0.483300000429
0.14090000093
-0.107799999416
-0.321900010109
0.286900013685
-0.321900010109
0.828199982643
-0.468600004911
-0.483300000429
0.14090000093
-0.107799999416
-0.483300000429
0.14090000093
-0.107799999416
0.0582999996841
0.0582999996841
0.0582999996841
0.0666000023484
0.0666000023484
0.0666000023484
0.0666000023484
0.0582999996841
0.0582999996841
0.0582999996841
0.103299997747
0.103299997747
0.0666000023484
0.0666000023484
0.0582999996841
0.0582999996841
0.0582999996841
0.0666000023484
0.0666000023484
0.0582999996841
0.0582999996841
0.0582999996841

>  <partial_bond_orders>  (1) 
1.0
1.0
1.0
2.0
1.0
1.0
1.0
1.0
1.0
1.0
1.0
2.0
1.0
1.0
1.0
1.0
1.0
1.0
1.0
1.0
1.0
1.0
1.0
1.0
1.0
1.0
1.0
1.0
1.0
1.0
1.0
1.0
1.0
1.0
1.0
1.0
1.0
1.0
1.0
1.0

>  <atom_types>  (1) 
c3
c3
os
p5
s
os
c3
c3
ss
c3
ss
p5
s
os
c3
c3
os
c3
c3
hc
hc
hc
h1
h1
h1
h1
hc
hc
hc
h2
h2
h1
h1
hc
hc
hc
h1
h1
hc
hc
hc

$$$$
conf_1
     RDKit          3D

 41 40  0  0  0  0  0  0  0  0999 V2000
    2.5365    2.6081    1.6191 C   0  0  0  0  0  0  0  0  0  0  0  0
    2.9954    1.4341    0.7686 C   0  0  0  0  0  0  0  0  0  0  0  0
    2.2138    0.3074    1.0858 O   0  0  0  0  0  0  0  0  0  0  0  0
    2.5791   -0.9351   -0.0239 P   0  0  0  0  0  0  0  0  0  0  0  0
    1.8992   -2.4055    0.5818 S   0  0  0  0  0  0  0  0  0  0  0  0
    4.2788   -1.1127   -0.1128 O   0  0  0  0  0  0  0  0  0  0  0  0
    4.6178   -1.8045   -1.2916 C   0  0  0  0  0  0  0  0  0  0  0  0
    6.0932   -2.1699   -1.2439 C   0  0  0  0  0  0  0  0  0  0  0  0
    1.7231   -0.4945   -1.9330 S   0  0  0  0  0  0  0  0  0  0  0  0
    0.1837    0.2634   -1.3131 C   0  0  0  0  0  0  0  0  0  0  0  0
   -0.9899   -1.0303   -0.7910 S   0  0  0  0  0  0  0  0  0  0  0  0
   -2.2092    0.2790    0.3590 P   0  0  0  0  0  0  0  0  0  0  0  0
   -1.3731    0.6931    1.8188 S   0  0  0  0  0  0  0  0  0  0  0  0
   -3.7125   -0.4447    0.7416 O   0  0  0  0  0  0  0  0  0  0  0  0
   -3.5070   -1.7856    1.1195 C   0  0  0  0  0  0  0  0  0  0  0  0
   -4.8009   -2.3407    1.6942 C   0  0  0  0  0  0  0  0  0  0  0  0
   -2.4621    1.6998   -0.5589 O   0  0  0  0  0  0  0  0  0  0  0  0
   -3.6106    2.3819   -0.1004 C   0  0  0  0  0  0  0  0  0  0  0  0
   -4.7954    2.0875   -1.0131 C   0  0  0  0  0  0  0  0  0  0  0  0
    1.4686    2.8324    1.4106 H   0  0  0  0  0  0  0  0  0  0  0  0
    3.1464    3.5054    1.3822 H   0  0  0  0  0  0  0  0  0  0  0  0
    2.6541    2.3663    2.6970 H   0  0  0  0  0  0  0  0  0  0  0  0
    4.0671    1.2381    0.9937 H   0  0  0  0  0  0  0  0  0  0  0  0
    2.8839    1.7249   -0.3011 H   0  0  0  0  0  0  0  0  0  0  0  0
    4.0355   -2.7479   -1.3999 H   0  0  0  0  0  0  0  0  0  0  0  0
    4.4551   -1.1549   -2.1789 H   0  0  0  0  0  0  0  0  0  0  0  0
    6.3774   -2.7077   -2.1731 H   0  0  0  0  0  0  0  0  0  0  0  0
    6.7104   -1.2505   -1.1570 H   0  0  0  0  0  0  0  0  0  0  0  0
    6.2935   -2.8274   -0.3713 H   0  0  0  0  0  0  0  0  0  0  0  0
   -0.2775    0.8347   -2.1445 H   0  0  0  0  0  0  0  0  0  0  0  0
    0.4051    0.9781   -0.4979 H   0  0  0  0  0  0  0  0  0  0  0  0
   -2.7179   -1.8812    1.8998 H   0  0  0  0  0  0  0  0  0  0  0  0
   -3.2365   -2.3978    0.2320 H   0  0  0  0  0  0  0  0  0  0  0  0
   -4.6579   -3.4028    1.9853 H   0  0  0  0  0  0  0  0  0  0  0  0
   -5.0980   -1.7578    2.5918 H   0  0  0  0  0  0  0  0  0  0  0  0
   -5.6106   -2.2808    0.9361 H   0  0  0  0  0  0  0  0  0  0  0  0
   -3.8793    2.1746    0.9615 H   0  0  0  0  0  0  0  0  0  0  0  0
   -3.4015    3.4710   -0.1536 H   0  0  0  0  0  0  0  0  0  0  0  0
   -5.6819    2.6630   -0.6730 H   0  0  0  0  0  0  0  0  0  0  0  0
   -4.5532    2.3835   -2.0557 H   0  0  0  0  0  0  0  0  0  0  0  0
   -5.0423    1.0060   -0.9935 H   0  0  0  0  0  0  0  0  0  0  0  0
  1  2  1  0
  2  3  1  0
  3  4  1  0
  4  5  2  0
  4  6  1  0
  6  7  1  0
  7  8  1  0
  4  9  1  0
  9 10  1  0
 10 11  1  0
 11 12  1  0
 12 13  2  0
 12 14  1  0
 14 15  1  0
 15 16  1  0
 12 17  1  0
 17 18  1  0
 18 19  1  0
  1 20  1  0
  1 21  1  0
  1 22  1  0
  2 23  1  0
  2 24  1  0
  7 25  1  0
  7 26  1  0
  8 27  1  0
  8 28  1  0
  8 29  1  0
 10 30  1  0
 10 31  1  0
 15 32  1  0
 15 33  1  0
 16 34  1  0
 16 35  1  0
 16 36  1  0
 18 37  1  0
 18 38  1  0
 19 39  1  0
 19 40  1  0
 19 41  1  0
M  END
>  <partial_charges>  (2) 
-0.107799999416
0.14090000093
-0.483300000429
0.828199982643
-0.468600004911
-0.483300000429
0.14090000093
-0.107799999416
-0.321900010109
0.286900013685
-0.321900010109
0.828199982643
-0.468600004911
-0.483300000429
0.14090000093
-0.107799999416
-0.483300000429
0.14090000093
-0.107799999416
0.0582999996841
0.0582999996841
0.0582999996841
0.0666000023484
0.0666000023484
0.0666000023484
0.0666000023484
0.0582999996841
0.0582999996841
0.0582999996841
0.103299997747
0.103299997747
0.0666000023484
0.0666000023484
0.0582999996841
0.0582999996841
0.0582999996841
0.0666000023484
0.0666000023484
0.0582999996841
0.0582999996841
0.0582999996841

>  <partial_bond_orders>  (2) 
1.0
1.0
1.0
2.0
1.0
1.0
1.0
1.0
1.0
1.0
1.0
2.0
1.0
1.0
1.0
1.0
1.0
1.0
1.0
1.0
1.0
1.0
1.0
1.0
1.0
1.0
1.0
1.0
1.0
1.0
1.0
1.0
1.0
1.0
1.0
1.0
1.0
1.0
1.0
1.0

>  <atom_types>  (2) 
c3
c3
os
p5
s
os
c3
c3
ss
c3
ss
p5
s
os
c3
c3
os
c3
c3
hc
hc
hc
h1
h1
h1
h1
hc
hc
hc
h2
h2
h1
h1
hc
hc
hc
h1
h1
hc
hc
hc

$$$$
conf_2
     RDKit          3D

 41 40  0  0  0  0  0  0  0  0999 V2000
    4.1315   -0.0844   -4.3182 C   0  0  0  0  0  0  0  0  0  0  0  0
    3.1103   -0.0632   -3.1918 C   0  0  0  0  0  0  0  0  0  0  0  0
    3.7463   -0.4271   -1.9892 O   0  0  0  0  0  0  0  0  0  0  0  0
    2.5678   -0.6737   -0.7736 P   0  0  0  0  0  0  0  0  0  0  0  0
    1.8917   -2.2542   -0.9650 S   0  0  0  0  0  0  0  0  0  0  0  0
    3.3307   -0.6074    0.7506 O   0  0  0  0  0  0  0  0  0  0  0  0
    4.0303    0.6100    0.8458 C   0  0  0  0  0  0  0  0  0  0  0  0
    4.6460    0.7199    2.2316 C   0  0  0  0  0  0  0  0  0  0  0  0
    1.0128    0.7871   -0.8657 S   0  0  0  0  0  0  0  0  0  0  0  0
    0.1972    0.3352    0.7060 C   0  0  0  0  0  0  0  0  0  0  0  0
   -1.0826   -0.9354    0.4073 S   0  0  0  0  0  0  0  0  0  0  0  0
   -2.7725    0.3465    0.1087 P   0  0  0  0  0  0  0  0  0  0  0  0
   -2.3374    1.8312   -0.6690 S   0  0  0  0  0  0  0  0  0  0  0  0
   -3.8355   -0.4672   -0.9488 O   0  0  0  0  0  0  0  0  0  0  0  0
   -4.4541   -1.5183   -0.2456 C   0  0  0  0  0  0  0  0  0  0  0  0
   -5.3099   -2.3241   -1.2107 C   0  0  0  0  0  0  0  0  0  0  0  0
   -3.6108    0.6761    1.5655 O   0  0  0  0  0  0  0  0  0  0  0  0
   -2.7052    1.1168    2.5477 C   0  0  0  0  0  0  0  0  0  0  0  0
   -3.4736    1.4333    3.8212 C   0  0  0  0  0  0  0  0  0  0  0  0
    4.5455   -1.1083   -4.4356 H   0  0  0  0  0  0  0  0  0  0  0  0
    3.6478    0.2204   -5.2700 H   0  0  0  0  0  0  0  0  0  0  0  0
    4.9601    0.6204   -4.0939 H   0  0  0  0  0  0  0  0  0  0  0  0
    2.2928   -0.7710   -3.4587 H   0  0  0  0  0  0  0  0  0  0  0  0
    2.7060    0.9695   -3.1159 H   0  0  0  0  0  0  0  0  0  0  0  0
    4.8532    0.6514    0.0976 H   0  0  0  0  0  0  0  0  0  0  0  0
    3.3496    1.4794    0.7058 H   0  0  0  0  0  0  0  0  0  0  0  0
    5.3487   -0.1229    2.4038 H   0  0  0  0  0  0  0  0  0  0  0  0
    3.8484    0.6931    3.0043 H   0  0  0  0  0  0  0  0  0  0  0  0
    5.2024    1.6767    2.3210 H   0  0  0  0  0  0  0  0  0  0  0  0
    0.9286   -0.0621    1.4367 H   0  0  0  0  0  0  0  0  0  0  0  0
   -0.2327    1.2470    1.1600 H   0  0  0  0  0  0  0  0  0  0  0  0
   -5.1198   -1.1183    0.5513 H   0  0  0  0  0  0  0  0  0  0  0  0
   -3.7023   -2.2070    0.2020 H   0  0  0  0  0  0  0  0  0  0  0  0
   -5.8104   -3.1532   -0.6673 H   0  0  0  0  0  0  0  0  0  0  0  0
   -6.0852   -1.6724   -1.6667 H   0  0  0  0  0  0  0  0  0  0  0  0
   -4.6742   -2.7525   -2.0147 H   0  0  0  0  0  0  0  0  0  0  0  0
   -1.9639    0.3241    2.7881 H   0  0  0  0  0  0  0  0  0  0  0  0
   -2.1877    2.0468    2.2243 H   0  0  0  0  0  0  0  0  0  0  0  0
   -2.7708    1.7816    4.6072 H   0  0  0  0  0  0  0  0  0  0  0  0
   -3.9984    0.5242    4.1846 H   0  0  0  0  0  0  0  0  0  0  0  0
   -4.2207    2.2318    3.6263 H   0  0  0  0  0  0  0  0  0  0  0  0
  1  2  1  0
  2  3  1  0
  3  4  1  0
  4  5  2  0
  4  6  1  0
  6  7  1  0
  7  8  1  0
  4  9  1  0
  9 10  1  0
 10 11  1  0
 11 12  1  0
 12 13  2  0
 12 14  1  0
 14 15  1  0
 15 16  1  0
 12 17  1  0
 17 18  1  0
 18 19  1  0
  1 20  1  0
  1 21  1  0
  1 22  1  0
  2 23  1  0
  2 24  1  0
  7 25  1  0
  7 26  1  0
  8 27  1  0
  8 28  1  0
  8 29  1  0
 10 30  1  0
 10 31  1  0
 15 32  1  0
 15 33  1  0
 16 34  1  0
 16 35  1  0
 16 36  1  0
 18 37  1  0
 18 38  1  0
 19 39  1  0
 19 40  1  0
 19 41  1  0
M  END
>  <partial_charges>  (3) 
-0.107799999416
0.14090000093
-0.483300000429
0.828199982643
-0.468600004911
-0.483300000429
0.14090000093
-0.107799999416
-0.321900010109
0.286900013685
-0.321900010109
0.828199982643
-0.468600004911
-0.483300000429
0.14090000093
-0.107799999416
-0.483300000429
0.14090000093
-0.107799999416
0.0582999996841
0.0582999996841
0.0582999996841
0.0666000023484
0.0666000023484
0.0666000023484
0.0666000023484
0.0582999996841
0.0582999996841
0.0582999996841
0.103299997747
0.103299997747
0.0666000023484
0.0666000023484
0.0582999996841
0.0582999996841
0.0582999996841
0.0666000023484
0.0666000023484
0.0582999996841
0.0582999996841
0.0582999996841

>  <partial_bond_orders>  (3) 
1.0
1.0
1.0
2.0
1.0
1.0
1.0
1.0
1.0
1.0
1.0
2.0
1.0
1.0
1.0
1.0
1.0
1.0
1.0
1.0
1.0
1.0
1.0
1.0
1.0
1.0
1.0
1.0
1.0
1.0
1.0
1.0
1.0
1.0
1.0
1.0
1.0
1.0
1.0
1.0

>  <atom_types>  (3) 
c3
c3
os
p5
s
os
c3
c3
ss
c3
ss
p5
s
os
c3
c3
os
c3
c3
hc
hc
hc
h1
h1
h1
h1
hc
hc
hc
h2
h2
h1
h1
hc
hc
hc
h1
h1
hc
hc
hc

$$$$
conf_3
     RDKit          3D

 41 40  0  0  0  0  0  0  0  0999 V2000
    2.7146    3.8087   -0.2711 C   0  0  0  0  0  0  0  0  0  0  0  0
    3.1030    2.3390   -0.2225 C   0  0  0  0  0  0  0  0  0  0  0  0
    2.9131    1.8571    1.0852 O   0  0  0  0  0  0  0  0  0  0  0  0
    3.4509    0.2375    1.1678 P   0  0  0  0  0  0  0  0  0  0  0  0
    4.9659    0.2205    2.0045 S   0  0  0  0  0  0  0  0  0  0  0  0
    3.6264   -0.4319   -0.4010 O   0  0  0  0  0  0  0  0  0  0  0  0
    3.8773   -1.8148   -0.3003 C   0  0  0  0  0  0  0  0  0  0  0  0
    4.0371   -2.3910   -1.6982 C   0  0  0  0  0  0  0  0  0  0  0  0
    2.0184   -0.8380    2.3069 S   0  0  0  0  0  0  0  0  0  0  0  0
    0.6591   -0.4686    1.1556 C   0  0  0  0  0  0  0  0  0  0  0  0
   -0.8592   -1.2738    1.7520 S   0  0  0  0  0  0  0  0  0  0  0  0
   -2.0317   -0.7076    0.0680 P   0  0  0  0  0  0  0  0  0  0  0  0
   -1.5448   -1.6471   -1.3032 S   0  0  0  0  0  0  0  0  0  0  0  0
   -3.7012   -0.9434    0.3643 O   0  0  0  0  0  0  0  0  0  0  0  0
   -3.8935   -2.1728    1.0235 C   0  0  0  0  0  0  0  0  0  0  0  0
   -5.3789   -2.4952    1.0463 C   0  0  0  0  0  0  0  0  0  0  0  0
   -1.7262    0.9438   -0.2553 O   0  0  0  0  0  0  0  0  0  0  0  0
   -2.7806    1.5007   -1.0123 C   0  0  0  0  0  0  0  0  0  0  0  0
   -3.7157    2.2930   -0.1055 C   0  0  0  0  0  0  0  0  0  0  0  0
    3.3378    4.3913    0.4397 H   0  0  0  0  0  0  0  0  0  0  0  0
    2.8706    4.2048   -1.2966 H   0  0  0  0  0  0  0  0  0  0  0  0
    1.6443    3.9273    0.0017 H   0  0  0  0  0  0  0  0  0  0  0  0
    2.4518    1.7884   -0.9389 H   0  0  0  0  0  0  0  0  0  0  0  0
    4.1710    2.2530   -0.5279 H   0  0  0  0  0  0  0  0  0  0  0  0
    4.8161   -2.0120    0.2630 H   0  0  0  0  0  0  0  0  0  0  0  0
    3.0291   -2.3431    0.1861 H   0  0  0  0  0  0  0  0  0  0  0  0
    3.0978   -2.2497   -2.2752 H   0  0  0  0  0  0  0  0  0  0  0  0
    4.2583   -3.4773   -1.6326 H   0  0  0  0  0  0  0  0  0  0  0  0
    4.8726   -1.8837   -2.2260 H   0  0  0  0  0  0  0  0  0  0  0  0
    0.9162   -0.8505    0.1462 H   0  0  0  0  0  0  0  0  0  0  0  0
    0.4989    0.6285    1.1161 H   0  0  0  0  0  0  0  0  0  0  0  0
   -3.3714   -3.0089    0.5053 H   0  0  0  0  0  0  0  0  0  0  0  0
   -3.5420   -2.1032    2.0757 H   0  0  0  0  0  0  0  0  0  0  0  0
   -5.5468   -3.4545    1.5805 H   0  0  0  0  0  0  0  0  0  0  0  0
   -5.7628   -2.5882    0.0081 H   0  0  0  0  0  0  0  0  0  0  0  0
   -5.9359   -1.6891    1.5695 H   0  0  0  0  0  0  0  0  0  0  0  0
   -3.3578    0.7620   -1.6156 H   0  0  0  0  0  0  0  0  0  0  0  0
   -2.3348    2.2076   -1.7438 H   0  0  0  0  0  0  0  0  0  0  0  0
   -3.1425    3.0721    0.4402 H   0  0  0  0  0  0  0  0  0  0  0  0
   -4.5019    2.7861   -0.7156 H   0  0  0  0  0  0  0  0  0  0  0  0
   -4.2025    1.6228    0.6325 H   0  0  0  0  0  0  0  0  0  0  0  0
  1  2  1  0
  2  3  1  0
  3  4  1  0
  4  5  2  0
  4  6  1  0
  6  7  1  0
  7  8  1  0
  4  9  1  0
  9 10  1  0
 10 11  1  0
 11 12  1  0
 12 13  2  0
 12 14  1  0
 14 15  1  0
 15 16  1  0
 12 17  1  0
 17 18  1  0
 18 19  1  0
  1 20  1  0
  1 21  1  0
  1 22  1  0
  2 23  1  0
  2 24  1  0
  7 25  1  0
  7 26  1  0
  8 27  1  0
  8 28  1  0
  8 29  1  0
 10 30  1  0
 10 31  1  0
 15 32  1  0
 15 33  1  0
 16 34  1  0
 16 35  1  0
 16 36  1  0
 18 37  1  0
 18 38  1  0
 19 39  1  0
 19 40  1  0
 19 41  1  0
M  END
>  <partial_charges>  (4) 
-0.107799999416
0.14090000093
-0.483300000429
0.828199982643
-0.468600004911
-0.483300000429
0.14090000093
-0.107799999416
-0.321900010109
0.286900013685
-0.321900010109
0.828199982643
-0.468600004911
-0.483300000429
0.14090000093
-0.107799999416
-0.483300000429
0.14090000093
-0.107799999416
0.0582999996841
0.0582999996841
0.0582999996841
0.0666000023484
0.0666000023484
0.0666000023484
0.0666000023484
0.0582999996841
0.0582999996841
0.0582999996841
0.103299997747
0.103299997747
0.0666000023484
0.0666000023484
0.0582999996841
0.0582999996841
0.0582999996841
0.0666000023484
0.0666000023484
0.0582999996841
0.0582999996841
0.0582999996841

>  <partial_bond_orders>  (4) 
1.0
1.0
1.0
2.0
1.0
1.0
1.0
1.0
1.0
1.0
1.0
2.0
1.0
1.0
1.0
1.0
1.0
1.0
1.0
1.0
1.0
1.0
1.0
1.0
1.0
1.0
1.0
1.0
1.0
1.0
1.0
1.0
1.0
1.0
1.0
1.0
1.0
1.0
1.0
1.0

>  <atom_types>  (4) 
c3
c3
os
p5
s
os
c3
c3
ss
c3
ss
p5
s
os
c3
c3
os
c3
c3
hc
hc
hc
h1
h1
h1
h1
hc
hc
hc
h2
h2
h1
h1
hc
hc
hc
h1
h1
hc
hc
hc

$$$$
conf_4
     RDKit          3D

 41 40  0  0  0  0  0  0  0  0999 V2000
    4.3858    2.9185    0.2813 C   0  0  0  0  0  0  0  0  0  0  0  0
    3.3943    1.7715    0.1677 C   0  0  0  0  0  0  0  0  0  0  0  0
    3.6803    0.8192    1.1652 O   0  0  0  0  0  0  0  0  0  0  0  0
    2.8101   -0.6265    0.8701 P   0  0  0  0  0  0  0  0  0  0  0  0
    2.2742   -1.2403    2.3946 S   0  0  0  0  0  0  0  0  0  0  0  0
    3.8505   -1.8075    0.2079 O   0  0  0  0  0  0  0  0  0  0  0  0
    4.4827   -1.2776   -0.9308 C   0  0  0  0  0  0  0  0  0  0  0  0
    5.3334   -2.3613   -1.5744 C   0  0  0  0  0  0  0  0  0  0  0  0
    1.1230   -0.3869   -0.4231 S   0  0  0  0  0  0  0  0  0  0  0  0
    0.0717    0.5705    0.7272 C   0  0  0  0  0  0  0  0  0  0  0  0
   -1.1354   -0.5377    1.5352 S   0  0  0  0  0  0  0  0  0  0  0  0
   -2.7079   -0.2752    0.1196 P   0  0  0  0  0  0  0  0  0  0  0  0
   -2.2227   -0.9012   -1.4212 S   0  0  0  0  0  0  0  0  0  0  0  0
   -4.1345   -1.0681    0.6374 O   0  0  0  0  0  0  0  0  0  0  0  0
   -3.8117   -2.3512    1.1208 C   0  0  0  0  0  0  0  0  0  0  0  0
   -5.0970   -3.1305    1.3515 C   0  0  0  0  0  0  0  0  0  0  0  0
   -3.0013    1.4013   -0.0275 O   0  0  0  0  0  0  0  0  0  0  0  0
   -4.3128    1.5977   -0.5002 C   0  0  0  0  0  0  0  0  0  0  0  0
   -4.5204    3.0768   -0.7859 C   0  0  0  0  0  0  0  0  0  0  0  0
    5.4199    2.5419    0.1306 H   0  0  0  0  0  0  0  0  0  0  0  0
    4.3113    3.3882    1.2850 H   0  0  0  0  0  0  0  0  0  0  0  0
    4.1652    3.6844   -0.4920 H   0  0  0  0  0  0  0  0  0  0  0  0
    2.3750    2.1863    0.3121 H   0  0  0  0  0  0  0  0  0  0  0  0
    3.4833    1.3483   -0.8567 H   0  0  0  0  0  0  0  0  0  0  0  0
    5.1560   -0.4379   -0.6487 H   0  0  0  0  0  0  0  0  0  0  0  0
    3.7373   -0.9377   -1.6844 H   0  0  0  0  0  0  0  0  0  0  0  0
    4.6930   -3.2160   -1.8796 H   0  0  0  0  0  0  0  0  0  0  0  0
    5.8433   -1.9545   -2.4732 H   0  0  0  0  0  0  0  0  0  0  0  0
    6.1013   -2.7193   -0.8560 H   0  0  0  0  0  0  0  0  0  0  0  0
    0.6749    1.0641    1.5150 H   0  0  0  0  0  0  0  0  0  0  0  0
   -0.4347    1.3776    0.1618 H   0  0  0  0  0  0  0  0  0  0  0  0
   -3.1914   -2.9242    0.3949 H   0  0  0  0  0  0  0  0  0  0  0  0
   -3.2796   -2.2741    2.0936 H   0  0  0  0  0  0  0  0  0  0  0  0
   -5.7359   -2.6009    2.0898 H   0  0  0  0  0  0  0  0  0  0  0  0
   -4.8584   -4.1423    1.7420 H   0  0  0  0  0  0  0  0  0  0  0  0
   -5.6541   -3.2352    0.3962 H   0  0  0  0  0  0  0  0  0  0  0  0
   -5.0536    1.2886    0.2703 H   0  0  0  0  0  0  0  0  0  0  0  0
   -4.4935    1.0369   -1.4457 H   0  0  0  0  0  0  0  0  0  0  0  0
   -3.8010    3.4186   -1.5601 H   0  0  0  0  0  0  0  0  0  0  0  0
   -4.3665    3.6687    0.1413 H   0  0  0  0  0  0  0  0  0  0  0  0
   -5.5541    3.2470   -1.1544 H   0  0  0  0  0  0  0  0  0  0  0  0
  1  2  1  0
  2  3  1  0
  3  4  1  0
  4  5  2  0
  4  6  1  0
  6  7  1  0
  7  8  1  0
  4  9  1  0
  9 10  1  0
 10 11  1  0
 11 12  1  0
 12 13  2  0
 12 14  1  0
 14 15  1  0
 15 16  1  0
 12 17  1  0
 17 18  1  0
 18 19  1  0
  1 20  1  0
  1 21  1  0
  1 22  1  0
  2 23  1  0
  2 24  1  0
  7 25  1  0
  7 26  1  0
  8 27  1  0
  8 28  1  0
  8 29  1  0
 10 30  1  0
 10 31  1  0
 15 32  1  0
 15 33  1  0
 16 34  1  0
 16 35  1  0
 16 36  1  0
 18 37  1  0
 18 38  1  0
 19 39  1  0
 19 40  1  0
 19 41  1  0
M  END
>  <partial_charges>  (5) 
-0.107799999416
0.14090000093
-0.483300000429
0.828199982643
-0.468600004911
-0.483300000429
0.14090000093
-0.107799999416
-0.321900010109
0.286900013685
-0.321900010109
0.828199982643
-0.468600004911
-0.483300000429
0.14090000093
-0.107799999416
-0.483300000429
0.14090000093
-0.107799999416
0.0582999996841
0.0582999996841
0.0582999996841
0.0666000023484
0.0666000023484
0.0666000023484
0.0666000023484
0.0582999996841
0.0582999996841
0.0582999996841
0.103299997747
0.103299997747
0.0666000023484
0.0666000023484
0.0582999996841
0.0582999996841
0.0582999996841
0.0666000023484
0.0666000023484
0.0582999996841
0.0582999996841
0.0582999996841

>  <partial_bond_orders>  (5) 
1.0
1.0
1.0
2.0
1.0
1.0
1.0
1.0
1.0
1.0
1.0
2.0
1.0
1.0
1.0
1.0
1.0
1.0
1.0
1.0
1.0
1.0
1.0
1.0
1.0
1.0
1.0
1.0
1.0
1.0
1.0
1.0
1.0
1.0
1.0
1.0
1.0
1.0
1.0
1.0

>  <atom_types>  (5) 
c3
c3
os
p5
s
os
c3
c3
ss
c3
ss
p5
s
os
c3
c3
os
c3
c3
hc
hc
hc
h1
h1
h1
h1
hc
hc
hc
h2
h2
h1
h1
hc
hc
hc
h1
h1
hc
hc
hc

$$$$
conf_5
     RDKit          3D

 41 40  0  0  0  0  0  0  0  0999 V2000
    5.9240    2.5085    0.3848 C   0  0  0  0  0  0  0  0  0  0  0  0
    4.6194    1.9300    0.9114 C   0  0  0  0  0  0  0  0  0  0  0  0
    4.4362    0.6443    0.3652 O   0  0  0  0  0  0  0  0  0  0  0  0
    3.1431   -0.1381    1.1673 P   0  0  0  0  0  0  0  0  0  0  0  0
    3.7424   -0.8679    2.6169 S   0  0  0  0  0  0  0  0  0  0  0  0
    2.5403   -1.3762    0.1618 O   0  0  0  0  0  0  0  0  0  0  0  0
    2.2198   -0.8209   -1.0922 C   0  0  0  0  0  0  0  0  0  0  0  0
    1.4862   -1.8639   -1.9197 C   0  0  0  0  0  0  0  0  0  0  0  0
    1.5660    1.2054    1.6706 S   0  0  0  0  0  0  0  0  0  0  0  0
    0.3695   -0.1061    2.0830 C   0  0  0  0  0  0  0  0  0  0  0  0
   -1.2616    0.6315    2.4365 S   0  0  0  0  0  0  0  0  0  0  0  0
   -1.9811    0.6225    0.4278 P   0  0  0  0  0  0  0  0  0  0  0  0
   -1.1268    1.8514   -0.4435 S   0  0  0  0  0  0  0  0  0  0  0  0
   -1.7157   -0.8816   -0.3453 O   0  0  0  0  0  0  0  0  0  0  0  0
   -2.2303   -1.9438    0.4330 C   0  0  0  0  0  0  0  0  0  0  0  0
   -3.6061   -2.3736   -0.0682 C   0  0  0  0  0  0  0  0  0  0  0  0
   -3.6532    0.9831    0.4727 O   0  0  0  0  0  0  0  0  0  0  0  0
   -4.1561    1.0518   -0.8451 C   0  0  0  0  0  0  0  0  0  0  0  0
   -5.6728    1.1554   -0.7904 C   0  0  0  0  0  0  0  0  0  0  0  0
    6.0753    3.5310    0.7872 H   0  0  0  0  0  0  0  0  0  0  0  0
    6.7762    1.8699    0.6980 H   0  0  0  0  0  0  0  0  0  0  0  0
    5.8967    2.5595   -0.7238 H   0  0  0  0  0  0  0  0  0  0  0  0
    4.6809    1.9048    2.0245 H   0  0  0  0  0  0  0  0  0  0  0  0
    3.7926    2.6014    0.5922 H   0  0  0  0  0  0  0  0  0  0  0  0
    1.5485    0.0613   -0.9944 H   0  0  0  0  0  0  0  0  0  0  0  0
    3.1473   -0.5284   -1.6341 H   0  0  0  0  0  0  0  0  0  0  0  0
    1.1889   -1.4309   -2.8983 H   0  0  0  0  0  0  0  0  0  0  0  0
    2.1464   -2.7400   -2.0968 H   0  0  0  0  0  0  0  0  0  0  0  0
    0.5753   -2.1980   -1.3827 H   0  0  0  0  0  0  0  0  0  0  0  0
    0.7146   -0.6298    2.9971 H   0  0  0  0  0  0  0  0  0  0  0  0
    0.2960   -0.8498    1.2670 H   0  0  0  0  0  0  0  0  0  0  0  0
   -1.5404   -2.8067    0.3105 H   0  0  0  0  0  0  0  0  0  0  0  0
   -2.2749   -1.7413    1.5267 H   0  0  0  0  0  0  0  0  0  0  0  0
   -3.8797   -3.3491    0.3844 H   0  0  0  0  0  0  0  0  0  0  0  0
   -3.5964   -2.4830   -1.1739 H   0  0  0  0  0  0  0  0  0  0  0  0
   -4.3736   -1.6295    0.2275 H   0  0  0  0  0  0  0  0  0  0  0  0
   -3.8933    0.1444   -1.4385 H   0  0  0  0  0  0  0  0  0  0  0  0
   -3.7698    1.9592   -1.3654 H   0  0  0  0  0  0  0  0  0  0  0  0
   -6.0990    0.2649   -0.2788 H   0  0  0  0  0  0  0  0  0  0  0  0
   -5.9714    2.0698   -0.2355 H   0  0  0  0  0  0  0  0  0  0  0  0
   -6.0831    1.2086   -1.8219 H   0  0  0  0  0  0  0  0  0  0  0  0
  1  2  1  0
  2  3  1  0
  3  4  1  0
  4  5  2  0
  4  6  1  0
  6  7  1  0
  7  8  1  0
  4  9  1  0
  9 10  1  0
 10 11  1  0
 11 12  1  0
 12 13  2  0
 12 14  1  0
 14 15  1  0
 15 16  1  0
 12 17  1  0
 17 18  1  0
 18 19  1  0
  1 20  1  0
  1 21  1  0
  1 22  1  0
  2 23  1  0
  2 24  1  0
  7 25  1  0
  7 26  1  0
  8 27  1  0
  8 28  1  0
  8 29  1  0
 10 30  1  0
 10 31  1  0
 15 32  1  0
 15 33  1  0
 16 34  1  0
 16 35  1  0
 16 36  1  0
 18 37  1  0
 18 38  1  0
 19 39  1  0
 19 40  1  0
 19 41  1  0
M  END
>  <partial_charges>  (6) 
-0.107799999416
0.14090000093
-0.483300000429
0.828199982643
-0.468600004911
-0.483300000429
0.14090000093
-0.107799999416
-0.321900010109
0.286900013685
-0.321900010109
0.828199982643
-0.468600004911
-0.483300000429
0.14090000093
-0.107799999416
-0.483300000429
0.14090000093
-0.107799999416
0.0582999996841
0.0582999996841
0.0582999996841
0.0666000023484
0.0666000023484
0.0666000023484
0.0666000023484
0.0582999996841
0.0582999996841
0.0582999996841
0.103299997747
0.103299997747
0.0666000023484
0.0666000023484
0.0582999996841
0.0582999996841
0.0582999996841
0.0666000023484
0.0666000023484
0.0582999996841
0.0582999996841
0.0582999996841

>  <partial_bond_orders>  (6) 
1.0
1.0
1.0
2.0
1.0
1.0
1.0
1.0
1.0
1.0
1.0
2.0
1.0
1.0
1.0
1.0
1.0
1.0
1.0
1.0
1.0
1.0
1.0
1.0
1.0
1.0
1.0
1.0
1.0
1.0
1.0
1.0
1.0
1.0
1.0
1.0
1.0
1.0
1.0
1.0

>  <atom_types>  (6) 
c3
c3
os
p5
s
os
c3
c3
ss
c3
ss
p5
s
os
c3
c3
os
c3
c3
hc
hc
hc
h1
h1
h1
h1
hc
hc
hc
h2
h2
h1
h1
hc
hc
hc
h1
h1
hc
hc
hc

$$$$
conf_6
     RDKit          3D

 41 40  0  0  0  0  0  0  0  0999 V2000
    6.2308    2.0133   -1.1016 C   0  0  0  0  0  0  0  0  0  0  0  0
    4.7152    2.0456   -0.9817 C   0  0  0  0  0  0  0  0  0  0  0  0
    4.3096    1.0821   -0.0398 O   0  0  0  0  0  0  0  0  0  0  0  0
    2.6467    1.2908    0.3111 P   0  0  0  0  0  0  0  0  0  0  0  0
    2.4769    2.5628    1.4701 S   0  0  0  0  0  0  0  0  0  0  0  0
    2.0308   -0.1391    1.0063 O   0  0  0  0  0  0  0  0  0  0  0  0
    2.5133   -1.2385    0.2717 C   0  0  0  0  0  0  0  0  0  0  0  0
    1.8456   -2.5053    0.7844 C   0  0  0  0  0  0  0  0  0  0  0  0
    1.5153    1.7805   -1.4308 S   0  0  0  0  0  0  0  0  0  0  0  0
   -0.1261    1.5232   -0.6797 C   0  0  0  0  0  0  0  0  0  0  0  0
   -0.6431   -0.2024   -0.9475 S   0  0  0  0  0  0  0  0  0  0  0  0
   -2.2545   -0.1397    0.4359 P   0  0  0  0  0  0  0  0  0  0  0  0
   -1.6232   -0.0740    2.0474 S   0  0  0  0  0  0  0  0  0  0  0  0
   -3.2653   -1.5104    0.2605 O   0  0  0  0  0  0  0  0  0  0  0  0
   -2.4738   -2.6743    0.1968 C   0  0  0  0  0  0  0  0  0  0  0  0
   -3.3809   -3.8946    0.2447 C   0  0  0  0  0  0  0  0  0  0  0  0
   -3.1430    1.2859    0.1316 O   0  0  0  0  0  0  0  0  0  0  0  0
   -4.4680    1.1028    0.5676 C   0  0  0  0  0  0  0  0  0  0  0  0
   -5.2135    2.4225    0.4573 C   0  0  0  0  0  0  0  0  0  0  0  0
    6.5636    2.7686   -1.8441 H   0  0  0  0  0  0  0  0  0  0  0  0
    6.5657    1.0074   -1.4345 H   0  0  0  0  0  0  0  0  0  0  0  0
    6.6936    2.2436   -0.1204 H   0  0  0  0  0  0  0  0  0  0  0  0
    4.2876    1.8112   -1.9794 H   0  0  0  0  0  0  0  0  0  0  0  0
    4.4183    3.0732   -0.6745 H   0  0  0  0  0  0  0  0  0  0  0  0
    3.6122   -1.3473    0.4085 H   0  0  0  0  0  0  0  0  0  0  0  0
    2.2780   -1.1396   -0.8128 H   0  0  0  0  0  0  0  0  0  0  0  0
    0.7472   -2.4380    0.6458 H   0  0  0  0  0  0  0  0  0  0  0  0
    2.0673   -2.6414    1.8629 H   0  0  0  0  0  0  0  0  0  0  0  0
    2.2249   -3.3837    0.2230 H   0  0  0  0  0  0  0  0  0  0  0  0
   -0.8498    2.1899   -1.1911 H   0  0  0  0  0  0  0  0  0  0  0  0
   -0.1157    1.7857    0.3954 H   0  0  0  0  0  0  0  0  0  0  0  0
   -1.7705   -2.7411    1.0554 H   0  0  0  0  0  0  0  0  0  0  0  0
   -1.9063   -2.7073   -0.7588 H   0  0  0  0  0  0  0  0  0  0  0  0
   -4.0934   -3.8736   -0.6058 H   0  0  0  0  0  0  0  0  0  0  0  0
   -2.7694   -4.8185    0.1785 H   0  0  0  0  0  0  0  0  0  0  0  0
   -3.9499   -3.9073    1.1962 H   0  0  0  0  0  0  0  0  0  0  0  0
   -4.9880    0.3610   -0.0752 H   0  0  0  0  0  0  0  0  0  0  0  0
   -4.5046    0.7741    1.6304 H   0  0  0  0  0  0  0  0  0  0  0  0
   -6.2684    2.2853    0.7739 H   0  0  0  0  0  0  0  0  0  0  0  0
   -5.1969    2.7838   -0.5935 H   0  0  0  0  0  0  0  0  0  0  0  0
   -4.7381    3.1829    1.1131 H   0  0  0  0  0  0  0  0  0  0  0  0
  1  2  1  0
  2  3  1  0
  3  4  1  0
  4  5  2  0
  4  6  1  0
  6  7  1  0
  7  8  1  0
  4  9  1  0
  9 10  1  0
 10 11  1  0
 11 12  1  0
 12 13  2  0
 12 14  1  0
 14 15  1  0
 15 16  1  0
 12 17  1  0
 17 18  1  0
 18 19  1  0
  1 20  1  0
  1 21  1  0
  1 22  1  0
  2 23  1  0
  2 24  1  0
  7 25  1  0
  7 26  1  0
  8 27  1  0
  8 28  1  0
  8 29  1  0
 10 30  1  0
 10 31  1  0
 15 32  1  0
 15 33  1  0
 16 34  1  0
 16 35  1  0
 16 36  1  0
 18 37  1  0
 18 38  1  0
 19 39  1  0
 19 40  1  0
 19 41  1  0
M  END
>  <partial_charges>  (7) 
-0.107799999416
0.14090000093
-0.483300000429
0.828199982643
-0.468600004911
-0.483300000429
0.14090000093
-0.107799999416
-0.321900010109
0.286900013685
-0.321900010109
0.828199982643
-0.468600004911
-0.483300000429
0.14090000093
-0.107799999416
-0.483300000429
0.14090000093
-0.107799999416
0.0582999996841
0.0582999996841
0.0582999996841
0.0666000023484
0.0666000023484
0.0666000023484
0.0666000023484
0.0582999996841
0.0582999996841
0.0582999996841
0.103299997747
0.103299997747
0.0666000023484
0.0666000023484
0.0582999996841
0.0582999996841
0.0582999996841
0.0666000023484
0.0666000023484
0.0582999996841
0.0582999996841
0.0582999996841

>  <partial_bond_orders>  (7) 
1.0
1.0
1.0
2.0
1.0
1.0
1.0
1.0
1.0
1.0
1.0
2.0
1.0
1.0
1.0
1.0
1.0
1.0
1.0
1.0
1.0
1.0
1.0
1.0
1.0
1.0
1.0
1.0
1.0
1.0
1.0
1.0
1.0
1.0
1.0
1.0
1.0
1.0
1.0
1.0

>  <atom_types>  (7) 
c3
c3
os
p5
s
os
c3
c3
ss
c3
ss
p5
s
os
c3
c3
os
c3
c3
hc
hc
hc
h1
h1
h1
h1
hc
hc
hc
h2
h2
h1
h1
hc
hc
hc
h1
h1
hc
hc
hc

$$$$
conf_7
     RDKit          3D

 41 40  0  0  0  0  0  0  0  0999 V2000
    3.9821    2.9905   -2.6121 C   0  0  0  0  0  0  0  0  0  0  0  0
    3.8970    1.6485   -1.9020 C   0  0  0  0  0  0  0  0  0  0  0  0
    2.6860    1.5843   -1.1866 O   0  0  0  0  0  0  0  0  0  0  0  0
    2.5073    0.0154   -0.5346 P   0  0  0  0  0  0  0  0  0  0  0  0
    1.8294   -1.0251   -1.7424 S   0  0  0  0  0  0  0  0  0  0  0  0
    4.0358   -0.5874   -0.0522 O   0  0  0  0  0  0  0  0  0  0  0  0
    3.8582   -1.6838    0.8141 C   0  0  0  0  0  0  0  0  0  0  0  0
    5.2026   -2.3576    1.0408 C   0  0  0  0  0  0  0  0  0  0  0  0
    1.1839    0.1510    1.1314 S   0  0  0  0  0  0  0  0  0  0  0  0
   -0.1899    0.9768    0.2535 C   0  0  0  0  0  0  0  0  0  0  0  0
   -1.3423   -0.2608   -0.4392 S   0  0  0  0  0  0  0  0  0  0  0  0
   -2.5781   -0.4566    1.2916 P   0  0  0  0  0  0  0  0  0  0  0  0
   -1.6972   -1.2548    2.5482 S   0  0  0  0  0  0  0  0  0  0  0  0
   -3.9996   -1.3495    0.9602 O   0  0  0  0  0  0  0  0  0  0  0  0
   -3.6838   -2.4454    0.1340 C   0  0  0  0  0  0  0  0  0  0  0  0
   -4.8996   -3.3526    0.0302 C   0  0  0  0  0  0  0  0  0  0  0  0
   -3.0220    1.0895    1.8589 O   0  0  0  0  0  0  0  0  0  0  0  0
   -3.9066    1.6681    0.9295 C   0  0  0  0  0  0  0  0  0  0  0  0
   -4.2241    3.0894    1.3666 C   0  0  0  0  0  0  0  0  0  0  0  0
    3.1362    3.0976   -3.3242 H   0  0  0  0  0  0  0  0  0  0  0  0
    4.9374    3.0587   -3.1742 H   0  0  0  0  0  0  0  0  0  0  0  0
    3.9401    3.8165   -1.8710 H   0  0  0  0  0  0  0  0  0  0  0  0
    3.9569    0.8474   -2.6740 H   0  0  0  0  0  0  0  0  0  0  0  0
    4.7632    1.5708   -1.2080 H   0  0  0  0  0  0  0  0  0  0  0  0
    3.4785   -1.3384    1.8000 H   0  0  0  0  0  0  0  0  0  0  0  0
    3.1644   -2.4427    0.3864 H   0  0  0  0  0  0  0  0  0  0  0  0
    5.9207   -1.6350    1.4834 H   0  0  0  0  0  0  0  0  0  0  0  0
    5.0809   -3.2158    1.7351 H   0  0  0  0  0  0  0  0  0  0  0  0
    5.6079   -2.7297    0.0759 H   0  0  0  0  0  0  0  0  0  0  0  0
    0.1878    1.6120   -0.5719 H   0  0  0  0  0  0  0  0  0  0  0  0
   -0.7100    1.6541    0.9586 H   0  0  0  0  0  0  0  0  0  0  0  0
   -3.4297   -2.0958   -0.8904 H   0  0  0  0  0  0  0  0  0  0  0  0
   -2.8428   -3.0465    0.5488 H   0  0  0  0  0  0  0  0  0  0  0  0
   -5.7568   -2.7921   -0.3998 H   0  0  0  0  0  0  0  0  0  0  0  0
   -5.1792   -3.7296    1.0370 H   0  0  0  0  0  0  0  0  0  0  0  0
   -4.6685   -4.2176   -0.6269 H   0  0  0  0  0  0  0  0  0  0  0  0
   -4.8611    1.0976    0.8882 H   0  0  0  0  0  0  0  0  0  0  0  0
   -3.4533    1.7177   -0.0862 H   0  0  0  0  0  0  0  0  0  0  0  0
   -4.9225    3.5584    0.6415 H   0  0  0  0  0  0  0  0  0  0  0  0
   -3.2909    3.6903    1.4083 H   0  0  0  0  0  0  0  0  0  0  0  0
   -4.6983    3.0820    2.3709 H   0  0  0  0  0  0  0  0  0  0  0  0
  1  2  1  0
  2  3  1  0
  3  4  1  0
  4  5  2  0
  4  6  1  0
  6  7  1  0
  7  8  1  0
  4  9  1  0
  9 10  1  0
 10 11  1  0
 11 12  1  0
 12 13  2  0
 12 14  1  0
 14 15  1  0
 15 16  1  0
 12 17  1  0
 17 18  1  0
 18 19  1  0
  1 20  1  0
  1 21  1  0
  1 22  1  0
  2 23  1  0
  2 24  1  0
  7 25  1  0
  7 26  1  0
  8 27  1  0
  8 28  1  0
  8 29  1  0
 10 30  1  0
 10 31  1  0
 15 32  1  0
 15 33  1  0
 16 34  1  0
 16 35  1  0
 16 36  1  0
 18 37  1  0
 18 38  1  0
 19 39  1  0
 19 40  1  0
 19 41  1  0
M  END
>  <partial_charges>  (8) 
-0.107799999416
0.14090000093
-0.483300000429
0.828199982643
-0.468600004911
-0.483300000429
0.14090000093
-0.107799999416
-0.321900010109
0.286900013685
-0.321900010109
0.828199982643
-0.468600004911
-0.483300000429
0.14090000093
-0.107799999416
-0.483300000429
0.14090000093
-0.107799999416
0.0582999996841
0.0582999996841
0.0582999996841
0.0666000023484
0.0666000023484
0.0666000023484
0.0666000023484
0.0582999996841
0.0582999996841
0.0582999996841
0.103299997747
0.103299997747
0.0666000023484
0.0666000023484
0.0582999996841
0.0582999996841
0.0582999996841
0.0666000023484
0.0666000023484
0.0582999996841
0.0582999996841
0.0582999996841

>  <partial_bond_orders>  (8) 
1.0
1.0
1.0
2.0
1.0
1.0
1.0
1.0
1.0
1.0
1.0
2.0
1.0
1.0
1.0
1.0
1.0
1.0
1.0
1.0
1.0
1.0
1.0
1.0
1.0
1.0
1.0
1.0
1.0
1.0
1.0
1.0
1.0
1.0
1.0
1.0
1.0
1.0
1.0
1.0

>  <atom_types>  (8) 
c3
c3
os
p5
s
os
c3
c3
ss
c3
ss
p5
s
os
c3
c3
os
c3
c3
hc
hc
hc
h1
h1
h1
h1
hc
hc
hc
h2
h2
h1
h1
hc
hc
hc
h1
h1
hc
hc
hc

$$$$
conf_8
     RDKit          3D

 41 40  0  0  0  0  0  0  0  0999 V2000
    4.0178    2.5878    1.3852 C   0  0  0  0  0  0  0  0  0  0  0  0
    3.6651    1.8340    0.1126 C   0  0  0  0  0  0  0  0  0  0  0  0
    2.6203    0.9304    0.3906 O   0  0  0  0  0  0  0  0  0  0  0  0
    2.2179    0.0782   -1.0368 P   0  0  0  0  0  0  0  0  0  0  0  0
    1.4131    1.1298   -2.1511 S   0  0  0  0  0  0  0  0  0  0  0  0
    3.6242   -0.5323   -1.7890 O   0  0  0  0  0  0  0  0  0  0  0  0
    4.1881   -1.5208   -0.9591 C   0  0  0  0  0  0  0  0  0  0  0  0
    5.5638   -1.8887   -1.4920 C   0  0  0  0  0  0  0  0  0  0  0  0
    0.8841   -1.5225   -0.5895 S   0  0  0  0  0  0  0  0  0  0  0  0
    0.1678   -0.8031    0.9304 C   0  0  0  0  0  0  0  0  0  0  0  0
   -0.8347    0.6859    0.5749 S   0  0  0  0  0  0  0  0  0  0  0  0
   -2.6398   -0.3260    0.0601 P   0  0  0  0  0  0  0  0  0  0  0  0
   -2.4424   -1.1461   -1.4528 S   0  0  0  0  0  0  0  0  0  0  0  0
   -2.9701   -1.4758    1.2798 O   0  0  0  0  0  0  0  0  0  0  0  0
   -4.3460   -1.7740    1.2692 C   0  0  0  0  0  0  0  0  0  0  0  0
   -4.6145   -2.9088    2.2452 C   0  0  0  0  0  0  0  0  0  0  0  0
   -3.9422    0.7796   -0.0567 O   0  0  0  0  0  0  0  0  0  0  0  0
   -3.5278    1.9234   -0.7670 C   0  0  0  0  0  0  0  0  0  0  0  0
   -4.7446    2.7818   -1.0754 C   0  0  0  0  0  0  0  0  0  0  0  0
    3.1336    3.1533    1.7486 H   0  0  0  0  0  0  0  0  0  0  0  0
    4.8439    3.3018    1.1826 H   0  0  0  0  0  0  0  0  0  0  0  0
    4.3429    1.8744    2.1720 H   0  0  0  0  0  0  0  0  0  0  0  0
    4.5777    1.3001   -0.2327 H   0  0  0  0  0  0  0  0  0  0  0  0
    3.3562    2.5800   -0.6529 H   0  0  0  0  0  0  0  0  0  0  0  0
    3.5586   -2.4371   -0.9680 H   0  0  0  0  0  0  0  0  0  0  0  0
    4.3132   -1.1637    0.0889 H   0  0  0  0  0  0  0  0  0  0  0  0
    5.4798   -2.2712   -2.5314 H   0  0  0  0  0  0  0  0  0  0  0  0
    6.0160   -2.6770   -0.8536 H   0  0  0  0  0  0  0  0  0  0  0  0
    6.2245   -0.9958   -1.4842 H   0  0  0  0  0  0  0  0  0  0  0  0
    0.9812   -0.5339    1.6335 H   0  0  0  0  0  0  0  0  0  0  0  0
   -0.4431   -1.5749    1.4382 H   0  0  0  0  0  0  0  0  0  0  0  0
   -4.6837   -2.1025    0.2596 H   0  0  0  0  0  0  0  0  0  0  0  0
   -4.9378   -0.8908    1.5975 H   0  0  0  0  0  0  0  0  0  0  0  0
   -4.0411   -3.8116    1.9452 H   0  0  0  0  0  0  0  0  0  0  0  0
   -4.3111   -2.6083    3.2706 H   0  0  0  0  0  0  0  0  0  0  0  0
   -5.6976   -3.1543    2.2476 H   0  0  0  0  0  0  0  0  0  0  0  0
   -2.8302    2.5292   -0.1493 H   0  0  0  0  0  0  0  0  0  0  0  0
   -3.0434    1.6590   -1.7343 H   0  0  0  0  0  0  0  0  0  0  0  0
   -4.4318    3.6931   -1.6277 H   0  0  0  0  0  0  0  0  0  0  0  0
   -5.2445    3.0865   -0.1314 H   0  0  0  0  0  0  0  0  0  0  0  0
   -5.4635    2.2108   -1.7006 H   0  0  0  0  0  0  0  0  0  0  0  0
  1  2  1  0
  2  3  1  0
  3  4  1  0
  4  5  2  0
  4  6  1  0
  6  7  1  0
  7  8  1  0
  4  9  1  0
  9 10  1  0
 10 11  1  0
 11 12  1  0
 12 13  2  0
 12 14  1  0
 14 15  1  0
 15 16  1  0
 12 17  1  0
 17 18  1  0
 18 19  1  0
  1 20  1  0
  1 21  1  0
  1 22  1  0
  2 23  1  0
  2 24  1  0
  7 25  1  0
  7 26  1  0
  8 27  1  0
  8 28  1  0
  8 29  1  0
 10 30  1  0
 10 31  1  0
 15 32  1  0
 15 33  1  0
 16 34  1  0
 16 35  1  0
 16 36  1  0
 18 37  1  0
 18 38  1  0
 19 39  1  0
 19 40  1  0
 19 41  1  0
M  END
>  <partial_charges>  (9) 
-0.107799999416
0.14090000093
-0.483300000429
0.828199982643
-0.468600004911
-0.483300000429
0.14090000093
-0.107799999416
-0.321900010109
0.286900013685
-0.321900010109
0.828199982643
-0.468600004911
-0.483300000429
0.14090000093
-0.107799999416
-0.483300000429
0.14090000093
-0.107799999416
0.0582999996841
0.0582999996841
0.0582999996841
0.0666000023484
0.0666000023484
0.0666000023484
0.0666000023484
0.0582999996841
0.0582999996841
0.0582999996841
0.103299997747
0.103299997747
0.0666000023484
0.0666000023484
0.0582999996841
0.0582999996841
0.0582999996841
0.0666000023484
0.0666000023484
0.0582999996841
0.0582999996841
0.0582999996841

>  <partial_bond_orders>  (9) 
1.0
1.0
1.0
2.0
1.0
1.0
1.0
1.0
1.0
1.0
1.0
2.0
1.0
1.0
1.0
1.0
1.0
1.0
1.0
1.0
1.0
1.0
1.0
1.0
1.0
1.0
1.0
1.0
1.0
1.0
1.0
1.0
1.0
1.0
1.0
1.0
1.0
1.0
1.0
1.0

>  <atom_types>  (9) 
c3
c3
os
p5
s
os
c3
c3
ss
c3
ss
p5
s
os
c3
c3
os
c3
c3
hc
hc
hc
h1
h1
h1
h1
hc
hc
hc
h2
h2
h1
h1
hc
hc
hc
h1
h1
hc
hc
hc

$$$$
