conf_0
     RDKit          3D

 31 32  0  0  0  0  0  0  0  0999 V2000
   -5.6012    1.3657    0.8762 C   0  0  0  0  0  0  0  0  0  0  0  0
   -4.3273    1.0429    1.3817 O   0  0  0  0  0  0  0  0  0  0  0  0
   -3.1965    1.0469    0.0985 P   0  0  0  0  0  0  0  0  0  0  0  0
   -2.9868    2.6584   -0.5003 S   0  0  0  0  0  0  0  0  0  0  0  0
   -3.7209    0.0386   -1.1765 O   0  0  0  0  0  0  0  0  0  0  0  0
   -3.8251   -1.2781   -0.6918 C   0  0  0  0  0  0  0  0  0  0  0  0
   -1.3326    0.3747    0.8707 S   0  0  0  0  0  0  0  0  0  0  0  0
   -0.4731    0.3698   -0.7404 C   0  0  0  0  0  0  0  0  0  0  0  0
    0.8827   -0.1567   -0.5699 N   0  0  0  0  0  0  0  0  0  0  0  0
    1.8999    0.6314   -0.1023 C   0  0  0  0  0  0  0  0  0  0  0  0
    1.6911    1.8464    0.1734 O   0  0  0  0  0  0  0  0  0  0  0  0
    3.1760    0.0773    0.0707 C   0  0  0  0  0  0  0  0  0  0  0  0
    4.2703    0.8283    0.5397 C   0  0  0  0  0  0  0  0  0  0  0  0
    5.5211    0.2211    0.6934 C   0  0  0  0  0  0  0  0  0  0  0  0
    5.6890   -1.1318    0.3832 C   0  0  0  0  0  0  0  0  0  0  0  0
    4.6066   -1.8844   -0.0819 C   0  0  0  0  0  0  0  0  0  0  0  0
    3.3527   -1.2825   -0.2381 C   0  0  0  0  0  0  0  0  0  0  0  0
    2.2986   -2.0058   -0.6840 N   0  0  0  0  0  0  0  0  0  0  0  0
    1.0992   -1.4472   -0.8385 N   0  0  0  0  0  0  0  0  0  0  0  0
   -5.6339    2.4127    0.5055 H   0  0  0  0  0  0  0  0  0  0  0  0
   -5.9255    0.6594    0.0820 H   0  0  0  0  0  0  0  0  0  0  0  0
   -6.3357    1.2876    1.7035 H   0  0  0  0  0  0  0  0  0  0  0  0
   -4.2539   -1.9130   -1.4938 H   0  0  0  0  0  0  0  0  0  0  0  0
   -4.5075   -1.3482    0.1834 H   0  0  0  0  0  0  0  0  0  0  0  0
   -2.8269   -1.6952   -0.4411 H   0  0  0  0  0  0  0  0  0  0  0  0
   -0.4350    1.3978   -1.1594 H   0  0  0  0  0  0  0  0  0  0  0  0
   -1.0320   -0.2643   -1.4614 H   0  0  0  0  0  0  0  0  0  0  0  0
    4.1625    1.8775    0.7859 H   0  0  0  0  0  0  0  0  0  0  0  0
    6.3616    0.8002    1.0537 H   0  0  0  0  0  0  0  0  0  0  0  0
    6.6586   -1.5974    0.5039 H   0  0  0  0  0  0  0  0  0  0  0  0
    4.7439   -2.9322   -0.3190 H   0  0  0  0  0  0  0  0  0  0  0  0
  1  2  1  0
  2  3  1  0
  3  4  2  0
  3  5  1  0
  5  6  1  0
  3  7  1  0
  7  8  1  0
  8  9  1  0
  9 19  1  0
  9 10  1  0
 10 11  2  0
 10 12  1  0
 12 17  2  0
 12 13  1  0
 13 14  2  0
 14 15  1  0
 15 16  2  0
 16 17  1  0
 17 18  1  0
 18 19  2  0
  1 20  1  0
  1 21  1  0
  1 22  1  0
  6 23  1  0
  6 24  1  0
  6 25  1  0
  8 26  1  0
  8 27  1  0
 13 28  1  0
 14 29  1  0
 15 30  1  0
 16 31  1  0
M  END
>  <partial_charges>  (1) 
0.125699996948
-0.497599989176
0.870199978352
-0.429899990559
-0.497599989176
0.125699996948
-0.42230001092
0.345999985933
-0.276300013065
0.693799972534
-0.59659999609
-0.163499996066
-0.0643000006676
-0.131400004029
-0.0995000004768
-0.0932999998331
0.109200000763
-0.229599997401
0.0248000007123
0.0681999996305
0.0681999996305
0.0681999996305
0.0681999996305
0.0681999996305
0.0681999996305
0.0909999981523
0.0909999981523
0.163699999452
0.145600005984
0.144700005651
0.161300003529

>  <partial_bond_orders>  (1) 
1.0
1.0
2.0
1.0
1.0
1.0
1.0
1.0
1.0
1.0
2.0
1.0
2.0
1.0
2.0
1.0
2.0
1.0
1.0
2.0
1.0
1.0
1.0
1.0
1.0
1.0
1.0
1.0
1.0
1.0
1.0
1.0

>  <atom_types>  (1) 
c3
os
p5
s
os
c3
ss
c3
n
c
o
ca
ca
ca
ca
ca
ca
nc
nd
h1
h1
h1
h1
h1
h1
h2
h2
ha
ha
ha
ha

$$$$
conf_1
     RDKit          3D

 31 32  0  0  0  0  0  0  0  0999 V2000
   -4.5097    2.3486    0.1766 C   0  0  0  0  0  0  0  0  0  0  0  0
   -3.2277    1.8241   -0.0646 O   0  0  0  0  0  0  0  0  0  0  0  0
   -3.3694    0.1569   -0.4083 P   0  0  0  0  0  0  0  0  0  0  0  0
   -3.7401   -0.0438   -2.0889 S   0  0  0  0  0  0  0  0  0  0  0  0
   -4.6163   -0.5288    0.5440 O   0  0  0  0  0  0  0  0  0  0  0  0
   -4.4835   -1.9291    0.5495 C   0  0  0  0  0  0  0  0  0  0  0  0
   -1.4940   -0.7582    0.0122 S   0  0  0  0  0  0  0  0  0  0  0  0
   -0.5039    0.4500   -0.9314 C   0  0  0  0  0  0  0  0  0  0  0  0
    0.9137    0.0913   -0.8499 N   0  0  0  0  0  0  0  0  0  0  0  0
    1.6700    0.4184    0.2435 C   0  0  0  0  0  0  0  0  0  0  0  0
    1.1595    1.0612    1.2037 O   0  0  0  0  0  0  0  0  0  0  0  0
    3.0167    0.0313    0.2897 C   0  0  0  0  0  0  0  0  0  0  0  0
    3.8559    0.3387    1.3771 C   0  0  0  0  0  0  0  0  0  0  0  0
    5.1923   -0.0747    1.3683 C   0  0  0  0  0  0  0  0  0  0  0  0
    5.6987   -0.7942    0.2816 C   0  0  0  0  0  0  0  0  0  0  0  0
    4.8709   -1.1043   -0.8014 C   0  0  0  0  0  0  0  0  0  0  0  0
    3.5331   -0.6931   -0.7985 C   0  0  0  0  0  0  0  0  0  0  0  0
    2.7240   -0.9932   -1.8419 N   0  0  0  0  0  0  0  0  0  0  0  0
    1.4487   -0.6084   -1.8542 N   0  0  0  0  0  0  0  0  0  0  0  0
   -4.4226    3.4484    0.2910 H   0  0  0  0  0  0  0  0  0  0  0  0
   -5.2015    2.1587   -0.6741 H   0  0  0  0  0  0  0  0  0  0  0  0
   -4.9292    1.9501    1.1257 H   0  0  0  0  0  0  0  0  0  0  0  0
   -5.3837   -2.3634    1.0303 H   0  0  0  0  0  0  0  0  0  0  0  0
   -3.6068   -2.2400    1.1559 H   0  0  0  0  0  0  0  0  0  0  0  0
   -4.4258   -2.3508   -0.4783 H   0  0  0  0  0  0  0  0  0  0  0  0
   -0.6633    1.4742   -0.5319 H   0  0  0  0  0  0  0  0  0  0  0  0
   -0.8300    0.4476   -1.9936 H   0  0  0  0  0  0  0  0  0  0  0  0
    3.4844    0.8948    2.2290 H   0  0  0  0  0  0  0  0  0  0  0  0
    5.8364    0.1628    2.2051 H   0  0  0  0  0  0  0  0  0  0  0  0
    6.7333   -1.1123    0.2793 H   0  0  0  0  0  0  0  0  0  0  0  0
    5.2699   -1.6630   -1.6391 H   0  0  0  0  0  0  0  0  0  0  0  0
  1  2  1  0
  2  3  1  0
  3  4  2  0
  3  5  1  0
  5  6  1  0
  3  7  1  0
  7  8  1  0
  8  9  1  0
  9 19  1  0
  9 10  1  0
 10 11  2  0
 10 12  1  0
 12 17  2  0
 12 13  1  0
 13 14  2  0
 14 15  1  0
 15 16  2  0
 16 17  1  0
 17 18  1  0
 18 19  2  0
  1 20  1  0
  1 21  1  0
  1 22  1  0
  6 23  1  0
  6 24  1  0
  6 25  1  0
  8 26  1  0
  8 27  1  0
 13 28  1  0
 14 29  1  0
 15 30  1  0
 16 31  1  0
M  END
>  <partial_charges>  (2) 
0.125699996948
-0.497599989176
0.870199978352
-0.429899990559
-0.497599989176
0.125699996948
-0.42230001092
0.345999985933
-0.276300013065
0.693799972534
-0.59659999609
-0.163499996066
-0.0643000006676
-0.131400004029
-0.0995000004768
-0.0932999998331
0.109200000763
-0.229599997401
0.0248000007123
0.0681999996305
0.0681999996305
0.0681999996305
0.0681999996305
0.0681999996305
0.0681999996305
0.0909999981523
0.0909999981523
0.163699999452
0.145600005984
0.144700005651
0.161300003529

>  <partial_bond_orders>  (2) 
1.0
1.0
2.0
1.0
1.0
1.0
1.0
1.0
1.0
1.0
2.0
1.0
2.0
1.0
2.0
1.0
2.0
1.0
1.0
2.0
1.0
1.0
1.0
1.0
1.0
1.0
1.0
1.0
1.0
1.0
1.0
1.0

>  <atom_types>  (2) 
c3
os
p5
s
os
c3
ss
c3
n
c
o
ca
ca
ca
ca
ca
ca
nc
nd
h1
h1
h1
h1
h1
h1
h2
h2
ha
ha
ha
ha

$$$$
conf_2
     RDKit          3D

 31 32  0  0  0  0  0  0  0  0999 V2000
   -4.6715    1.9750   -0.1493 C   0  0  0  0  0  0  0  0  0  0  0  0
   -3.3614    1.4618   -0.1195 O   0  0  0  0  0  0  0  0  0  0  0  0
   -3.3713   -0.1296   -0.7455 P   0  0  0  0  0  0  0  0  0  0  0  0
   -3.6601   -0.1016   -2.4521 S   0  0  0  0  0  0  0  0  0  0  0  0
   -4.5924   -1.0648   -0.0032 O   0  0  0  0  0  0  0  0  0  0  0  0
   -4.2660   -1.2329    1.3545 C   0  0  0  0  0  0  0  0  0  0  0  0
   -1.4680   -1.0198   -0.4170 S   0  0  0  0  0  0  0  0  0  0  0  0
   -0.5133    0.4100   -1.0285 C   0  0  0  0  0  0  0  0  0  0  0  0
    0.9183    0.1107   -0.9546 N   0  0  0  0  0  0  0  0  0  0  0  0
    1.6108    0.2261    0.2208 C   0  0  0  0  0  0  0  0  0  0  0  0
    1.0266    0.6173    1.2703 O   0  0  0  0  0  0  0  0  0  0  0  0
    2.9749   -0.0965    0.2506 C   0  0  0  0  0  0  0  0  0  0  0  0
    3.7515    0.0048    1.4201 C   0  0  0  0  0  0  0  0  0  0  0  0
    5.1090   -0.3318    1.3900 C   0  0  0  0  0  0  0  0  0  0  0  0
    5.6985   -0.7703    0.2004 C   0  0  0  0  0  0  0  0  0  0  0  0
    4.9333   -0.8747   -0.9648 C   0  0  0  0  0  0  0  0  0  0  0  0
    3.5748   -0.5390   -0.9411 C   0  0  0  0  0  0  0  0  0  0  0  0
    2.8261   -0.6415   -2.0646 N   0  0  0  0  0  0  0  0  0  0  0  0
    1.5321   -0.3251   -2.0582 N   0  0  0  0  0  0  0  0  0  0  0  0
   -4.6542    3.0019    0.2696 H   0  0  0  0  0  0  0  0  0  0  0  0
   -5.0554    2.0509   -1.1896 H   0  0  0  0  0  0  0  0  0  0  0  0
   -5.3620    1.3751    0.4814 H   0  0  0  0  0  0  0  0  0  0  0  0
   -4.0697   -0.2634    1.8642 H   0  0  0  0  0  0  0  0  0  0  0  0
   -3.4011   -1.9198    1.4716 H   0  0  0  0  0  0  0  0  0  0  0  0
   -5.1303   -1.7029    1.8665 H   0  0  0  0  0  0  0  0  0  0  0  0
   -0.7471    1.3139   -0.4262 H   0  0  0  0  0  0  0  0  0  0  0  0
   -0.7978    0.6232   -2.0814 H   0  0  0  0  0  0  0  0  0  0  0  0
    3.3151    0.3421    2.3522 H   0  0  0  0  0  0  0  0  0  0  0  0
    5.7048   -0.2528    2.2901 H   0  0  0  0  0  0  0  0  0  0  0  0
    6.7491   -1.0299    0.1819 H   0  0  0  0  0  0  0  0  0  0  0  0
    5.3966   -1.2162   -1.8823 H   0  0  0  0  0  0  0  0  0  0  0  0
  1  2  1  0
  2  3  1  0
  3  4  2  0
  3  5  1  0
  5  6  1  0
  3  7  1  0
  7  8  1  0
  8  9  1  0
  9 19  1  0
  9 10  1  0
 10 11  2  0
 10 12  1  0
 12 17  2  0
 12 13  1  0
 13 14  2  0
 14 15  1  0
 15 16  2  0
 16 17  1  0
 17 18  1  0
 18 19  2  0
  1 20  1  0
  1 21  1  0
  1 22  1  0
  6 23  1  0
  6 24  1  0
  6 25  1  0
  8 26  1  0
  8 27  1  0
 13 28  1  0
 14 29  1  0
 15 30  1  0
 16 31  1  0
M  END
>  <partial_charges>  (3) 
0.125699996948
-0.497599989176
0.870199978352
-0.429899990559
-0.497599989176
0.125699996948
-0.42230001092
0.345999985933
-0.276300013065
0.693799972534
-0.59659999609
-0.163499996066
-0.0643000006676
-0.131400004029
-0.0995000004768
-0.0932999998331
0.109200000763
-0.229599997401
0.0248000007123
0.0681999996305
0.0681999996305
0.0681999996305
0.0681999996305
0.0681999996305
0.0681999996305
0.0909999981523
0.0909999981523
0.163699999452
0.145600005984
0.144700005651
0.161300003529

>  <partial_bond_orders>  (3) 
1.0
1.0
2.0
1.0
1.0
1.0
1.0
1.0
1.0
1.0
2.0
1.0
2.0
1.0
2.0
1.0
2.0
1.0
1.0
2.0
1.0
1.0
1.0
1.0
1.0
1.0
1.0
1.0
1.0
1.0
1.0
1.0

>  <atom_types>  (3) 
c3
os
p5
s
os
c3
ss
c3
n
c
o
ca
ca
ca
ca
ca
ca
nc
nd
h1
h1
h1
h1
h1
h1
h2
h2
ha
ha
ha
ha

$$$$
conf_3
     RDKit          3D

 31 32  0  0  0  0  0  0  0  0999 V2000
   -3.8513    1.7809    0.3567 C   0  0  0  0  0  0  0  0  0  0  0  0
   -2.7063    1.3276   -0.3251 O   0  0  0  0  0  0  0  0  0  0  0  0
   -2.6725   -0.3855   -0.3115 P   0  0  0  0  0  0  0  0  0  0  0  0
   -4.0408   -1.0416   -1.1477 S   0  0  0  0  0  0  0  0  0  0  0  0
   -1.2552   -0.9564   -1.0744 O   0  0  0  0  0  0  0  0  0  0  0  0
   -0.9472   -0.1089   -2.1532 C   0  0  0  0  0  0  0  0  0  0  0  0
   -2.6762   -1.1375    1.6780 S   0  0  0  0  0  0  0  0  0  0  0  0
   -1.2860   -0.1064    2.2720 C   0  0  0  0  0  0  0  0  0  0  0  0
   -0.0310   -0.4789    1.6074 N   0  0  0  0  0  0  0  0  0  0  0  0
    0.7235    0.4339    0.9170 C   0  0  0  0  0  0  0  0  0  0  0  0
    0.3615    1.6415    0.8419 O   0  0  0  0  0  0  0  0  0  0  0  0
    1.9011    0.0144    0.2825 C   0  0  0  0  0  0  0  0  0  0  0  0
    2.7101    0.8900   -0.4660 C   0  0  0  0  0  0  0  0  0  0  0  0
    3.8722    0.4145   -1.0824 C   0  0  0  0  0  0  0  0  0  0  0  0
    4.2350   -0.9299   -0.9567 C   0  0  0  0  0  0  0  0  0  0  0  0
    3.4367   -1.8052   -0.2147 C   0  0  0  0  0  0  0  0  0  0  0  0
    2.2718   -1.3355    0.4024 C   0  0  0  0  0  0  0  0  0  0  0  0
    1.4927   -2.1773    1.1207 N   0  0  0  0  0  0  0  0  0  0  0  0
    0.3747   -1.7483    1.7039 N   0  0  0  0  0  0  0  0  0  0  0  0
   -4.7798    1.5060   -0.1876 H   0  0  0  0  0  0  0  0  0  0  0  0
   -3.8145    2.8885    0.4017 H   0  0  0  0  0  0  0  0  0  0  0  0
   -3.8859    1.4131    1.4038 H   0  0  0  0  0  0  0  0  0  0  0  0
   -0.0759   -0.5327   -2.6931 H   0  0  0  0  0  0  0  0  0  0  0  0
   -1.7886   -0.0429   -2.8781 H   0  0  0  0  0  0  0  0  0  0  0  0
   -0.6519    0.9012   -1.7960 H   0  0  0  0  0  0  0  0  0  0  0  0
   -1.5389    0.9649    2.1344 H   0  0  0  0  0  0  0  0  0  0  0  0
   -1.1755   -0.2740    3.3639 H   0  0  0  0  0  0  0  0  0  0  0  0
    2.4470    1.9346   -0.5780 H   0  0  0  0  0  0  0  0  0  0  0  0
    4.4925    1.0890   -1.6584 H   0  0  0  0  0  0  0  0  0  0  0  0
    5.1352   -1.2935   -1.4350 H   0  0  0  0  0  0  0  0  0  0  0  0
    3.7236   -2.8455   -0.1222 H   0  0  0  0  0  0  0  0  0  0  0  0
  1  2  1  0
  2  3  1  0
  3  4  2  0
  3  5  1  0
  5  6  1  0
  3  7  1  0
  7  8  1  0
  8  9  1  0
  9 19  1  0
  9 10  1  0
 10 11  2  0
 10 12  1  0
 12 17  2  0
 12 13  1  0
 13 14  2  0
 14 15  1  0
 15 16  2  0
 16 17  1  0
 17 18  1  0
 18 19  2  0
  1 20  1  0
  1 21  1  0
  1 22  1  0
  6 23  1  0
  6 24  1  0
  6 25  1  0
  8 26  1  0
  8 27  1  0
 13 28  1  0
 14 29  1  0
 15 30  1  0
 16 31  1  0
M  END
>  <partial_charges>  (4) 
0.125699996948
-0.497599989176
0.870199978352
-0.429899990559
-0.497599989176
0.125699996948
-0.42230001092
0.345999985933
-0.276300013065
0.693799972534
-0.59659999609
-0.163499996066
-0.0643000006676
-0.131400004029
-0.0995000004768
-0.0932999998331
0.109200000763
-0.229599997401
0.0248000007123
0.0681999996305
0.0681999996305
0.0681999996305
0.0681999996305
0.0681999996305
0.0681999996305
0.0909999981523
0.0909999981523
0.163699999452
0.145600005984
0.144700005651
0.161300003529

>  <partial_bond_orders>  (4) 
1.0
1.0
2.0
1.0
1.0
1.0
1.0
1.0
1.0
1.0
2.0
1.0
2.0
1.0
2.0
1.0
2.0
1.0
1.0
2.0
1.0
1.0
1.0
1.0
1.0
1.0
1.0
1.0
1.0
1.0
1.0
1.0

>  <atom_types>  (4) 
c3
os
p5
s
os
c3
ss
c3
n
c
o
ca
ca
ca
ca
ca
ca
nc
nd
h1
h1
h1
h1
h1
h1
h2
h2
ha
ha
ha
ha

$$$$
conf_4
     RDKit          3D

 31 32  0  0  0  0  0  0  0  0999 V2000
   -3.8698   -0.8184    1.0167 C   0  0  0  0  0  0  0  0  0  0  0  0
   -3.7703    0.5662    0.7871 O   0  0  0  0  0  0  0  0  0  0  0  0
   -3.1728    0.8133   -0.7937 P   0  0  0  0  0  0  0  0  0  0  0  0
   -2.9693    2.5115   -1.0658 S   0  0  0  0  0  0  0  0  0  0  0  0
   -4.2418    0.1590   -1.9574 O   0  0  0  0  0  0  0  0  0  0  0  0
   -5.5335    0.6758   -1.7405 C   0  0  0  0  0  0  0  0  0  0  0  0
   -1.2840   -0.1324   -1.0399 S   0  0  0  0  0  0  0  0  0  0  0  0
   -0.5014    0.6739    0.3995 C   0  0  0  0  0  0  0  0  0  0  0  0
    0.8535    0.1479    0.5779 N   0  0  0  0  0  0  0  0  0  0  0  0
    1.9024    0.6110   -0.1704 C   0  0  0  0  0  0  0  0  0  0  0  0
    1.7236    1.5257   -1.0230 O   0  0  0  0  0  0  0  0  0  0  0  0
    3.1775    0.0588    0.0159 C   0  0  0  0  0  0  0  0  0  0  0  0
    4.3028    0.4898   -0.7115 C   0  0  0  0  0  0  0  0  0  0  0  0
    5.5511   -0.0991   -0.4833 C   0  0  0  0  0  0  0  0  0  0  0  0
    5.6855   -1.1168    0.4659 C   0  0  0  0  0  0  0  0  0  0  0  0
    4.5722   -1.5510    1.1913 C   0  0  0  0  0  0  0  0  0  0  0  0
    3.3208   -0.9655    0.9677 C   0  0  0  0  0  0  0  0  0  0  0  0
    2.2369   -1.3835    1.6633 N   0  0  0  0  0  0  0  0  0  0  0  0
    1.0394   -0.8357    1.4624 N   0  0  0  0  0  0  0  0  0  0  0  0
   -4.5111   -1.3220    0.2607 H   0  0  0  0  0  0  0  0  0  0  0  0
   -2.8666   -1.2935    1.0543 H   0  0  0  0  0  0  0  0  0  0  0  0
   -4.3445   -0.9755    2.0066 H   0  0  0  0  0  0  0  0  0  0  0  0
   -5.5693    1.7681   -1.9412 H   0  0  0  0  0  0  0  0  0  0  0  0
   -5.9046    0.4539   -0.7168 H   0  0  0  0  0  0  0  0  0  0  0  0
   -6.2293    0.1883   -2.4536 H   0  0  0  0  0  0  0  0  0  0  0  0
   -1.1022    0.4758    1.3126 H   0  0  0  0  0  0  0  0  0  0  0  0
   -0.4689    1.7746    0.2534 H   0  0  0  0  0  0  0  0  0  0  0  0
    4.2212    1.2765   -1.4514 H   0  0  0  0  0  0  0  0  0  0  0  0
    6.4155    0.2339   -1.0432 H   0  0  0  0  0  0  0  0  0  0  0  0
    6.6532   -1.5697    0.6389 H   0  0  0  0  0  0  0  0  0  0  0  0
    4.6838   -2.3407    1.9241 H   0  0  0  0  0  0  0  0  0  0  0  0
  1  2  1  0
  2  3  1  0
  3  4  2  0
  3  5  1  0
  5  6  1  0
  3  7  1  0
  7  8  1  0
  8  9  1  0
  9 19  1  0
  9 10  1  0
 10 11  2  0
 10 12  1  0
 12 17  2  0
 12 13  1  0
 13 14  2  0
 14 15  1  0
 15 16  2  0
 16 17  1  0
 17 18  1  0
 18 19  2  0
  1 20  1  0
  1 21  1  0
  1 22  1  0
  6 23  1  0
  6 24  1  0
  6 25  1  0
  8 26  1  0
  8 27  1  0
 13 28  1  0
 14 29  1  0
 15 30  1  0
 16 31  1  0
M  END
>  <partial_charges>  (5) 
0.125699996948
-0.497599989176
0.870199978352
-0.429899990559
-0.497599989176
0.125699996948
-0.42230001092
0.345999985933
-0.276300013065
0.693799972534
-0.59659999609
-0.163499996066
-0.0643000006676
-0.131400004029
-0.0995000004768
-0.0932999998331
0.109200000763
-0.229599997401
0.0248000007123
0.0681999996305
0.0681999996305
0.0681999996305
0.0681999996305
0.0681999996305
0.0681999996305
0.0909999981523
0.0909999981523
0.163699999452
0.145600005984
0.144700005651
0.161300003529

>  <partial_bond_orders>  (5) 
1.0
1.0
2.0
1.0
1.0
1.0
1.0
1.0
1.0
1.0
2.0
1.0
2.0
1.0
2.0
1.0
2.0
1.0
1.0
2.0
1.0
1.0
1.0
1.0
1.0
1.0
1.0
1.0
1.0
1.0
1.0
1.0

>  <atom_types>  (5) 
c3
os
p5
s
os
c3
ss
c3
n
c
o
ca
ca
ca
ca
ca
ca
nc
nd
h1
h1
h1
h1
h1
h1
h2
h2
ha
ha
ha
ha

$$$$
conf_5
     RDKit          3D

 31 32  0  0  0  0  0  0  0  0999 V2000
   -4.0085    0.3782    1.0683 C   0  0  0  0  0  0  0  0  0  0  0  0
   -2.9063   -0.4355    0.7460 O   0  0  0  0  0  0  0  0  0  0  0  0
   -2.2855    0.0665   -0.7636 P   0  0  0  0  0  0  0  0  0  0  0  0
   -1.0128   -1.0043   -1.2479 S   0  0  0  0  0  0  0  0  0  0  0  0
   -3.5194    0.0887   -1.9494 O   0  0  0  0  0  0  0  0  0  0  0  0
   -4.0638   -1.2037   -2.0826 C   0  0  0  0  0  0  0  0  0  0  0  0
   -1.4821    2.0335   -0.6332 S   0  0  0  0  0  0  0  0  0  0  0  0
   -0.6488    1.8371    0.9883 C   0  0  0  0  0  0  0  0  0  0  0  0
    0.5101    0.9436    0.8966 N   0  0  0  0  0  0  0  0  0  0  0  0
    1.6181    1.2832    0.1676 C   0  0  0  0  0  0  0  0  0  0  0  0
    1.6674    2.3887   -0.4414 O   0  0  0  0  0  0  0  0  0  0  0  0
    2.6994    0.3934    0.1039 C   0  0  0  0  0  0  0  0  0  0  0  0
    3.8639    0.6691   -0.6371 C   0  0  0  0  0  0  0  0  0  0  0  0
    4.9115   -0.2575   -0.6647 C   0  0  0  0  0  0  0  0  0  0  0  0
    4.8067   -1.4587    0.0432 C   0  0  0  0  0  0  0  0  0  0  0  0
    3.6538   -1.7388    0.7825 C   0  0  0  0  0  0  0  0  0  0  0  0
    2.6021   -0.8160    0.8133 C   0  0  0  0  0  0  0  0  0  0  0  0
    1.4839   -1.0788    1.5297 N   0  0  0  0  0  0  0  0  0  0  0  0
    0.4721   -0.2132    1.5641 N   0  0  0  0  0  0  0  0  0  0  0  0
   -3.7259    1.4508    1.1346 H   0  0  0  0  0  0  0  0  0  0  0  0
   -4.3864    0.0759    2.0662 H   0  0  0  0  0  0  0  0  0  0  0  0
   -4.8412    0.2430    0.3456 H   0  0  0  0  0  0  0  0  0  0  0  0
   -4.9711   -1.1376   -2.7170 H   0  0  0  0  0  0  0  0  0  0  0  0
   -3.3502   -1.8816   -2.5977 H   0  0  0  0  0  0  0  0  0  0  0  0
   -4.3755   -1.6365   -1.1071 H   0  0  0  0  0  0  0  0  0  0  0  0
   -0.3136    2.8387    1.3322 H   0  0  0  0  0  0  0  0  0  0  0  0
   -1.3693    1.4664    1.7467 H   0  0  0  0  0  0  0  0  0  0  0  0
    3.9659    1.5930   -1.1930 H   0  0  0  0  0  0  0  0  0  0  0  0
    5.8059   -0.0442   -1.2357 H   0  0  0  0  0  0  0  0  0  0  0  0
    5.6198   -2.1726    0.0191 H   0  0  0  0  0  0  0  0  0  0  0  0
    3.5801   -2.6709    1.3291 H   0  0  0  0  0  0  0  0  0  0  0  0
  1  2  1  0
  2  3  1  0
  3  4  2  0
  3  5  1  0
  5  6  1  0
  3  7  1  0
  7  8  1  0
  8  9  1  0
  9 19  1  0
  9 10  1  0
 10 11  2  0
 10 12  1  0
 12 17  2  0
 12 13  1  0
 13 14  2  0
 14 15  1  0
 15 16  2  0
 16 17  1  0
 17 18  1  0
 18 19  2  0
  1 20  1  0
  1 21  1  0
  1 22  1  0
  6 23  1  0
  6 24  1  0
  6 25  1  0
  8 26  1  0
  8 27  1  0
 13 28  1  0
 14 29  1  0
 15 30  1  0
 16 31  1  0
M  END
>  <partial_charges>  (6) 
0.125699996948
-0.497599989176
0.870199978352
-0.429899990559
-0.497599989176
0.125699996948
-0.42230001092
0.345999985933
-0.276300013065
0.693799972534
-0.59659999609
-0.163499996066
-0.0643000006676
-0.131400004029
-0.0995000004768
-0.0932999998331
0.109200000763
-0.229599997401
0.0248000007123
0.0681999996305
0.0681999996305
0.0681999996305
0.0681999996305
0.0681999996305
0.0681999996305
0.0909999981523
0.0909999981523
0.163699999452
0.145600005984
0.144700005651
0.161300003529

>  <partial_bond_orders>  (6) 
1.0
1.0
2.0
1.0
1.0
1.0
1.0
1.0
1.0
1.0
2.0
1.0
2.0
1.0
2.0
1.0
2.0
1.0
1.0
2.0
1.0
1.0
1.0
1.0
1.0
1.0
1.0
1.0
1.0
1.0
1.0
1.0

>  <atom_types>  (6) 
c3
os
p5
s
os
c3
ss
c3
n
c
o
ca
ca
ca
ca
ca
ca
nc
nd
h1
h1
h1
h1
h1
h1
h2
h2
ha
ha
ha
ha

$$$$
conf_6
     RDKit          3D

 31 32  0  0  0  0  0  0  0  0999 V2000
   -4.2018    1.0081   -1.4717 C   0  0  0  0  0  0  0  0  0  0  0  0
   -3.6090   -0.1514   -0.9399 O   0  0  0  0  0  0  0  0  0  0  0  0
   -3.1530    0.0818    0.7021 P   0  0  0  0  0  0  0  0  0  0  0  0
   -3.0597    1.7396    1.2174 S   0  0  0  0  0  0  0  0  0  0  0  0
   -4.2049   -0.7741    1.7402 O   0  0  0  0  0  0  0  0  0  0  0  0
   -5.5313   -0.5430    1.3368 C   0  0  0  0  0  0  0  0  0  0  0  0
   -1.2297   -0.7757    0.9517 S   0  0  0  0  0  0  0  0  0  0  0  0
   -0.4874    0.0842   -0.4770 C   0  0  0  0  0  0  0  0  0  0  0  0
    0.9411   -0.2295   -0.5497 N   0  0  0  0  0  0  0  0  0  0  0  0
    1.8539    0.4202    0.2373 C   0  0  0  0  0  0  0  0  0  0  0  0
    1.4796    1.3261    1.0341 O   0  0  0  0  0  0  0  0  0  0  0  0
    3.2086    0.0693    0.1531 C   0  0  0  0  0  0  0  0  0  0  0  0
    4.2031    0.6985    0.9253 C   0  0  0  0  0  0  0  0  0  0  0  0
    5.5398    0.3057    0.7994 C   0  0  0  0  0  0  0  0  0  0  0  0
    5.8927   -0.7122   -0.0919 C   0  0  0  0  0  0  0  0  0  0  0  0
    4.9104   -1.3425   -0.8614 C   0  0  0  0  0  0  0  0  0  0  0  0
    3.5714   -0.9536   -0.7401 C   0  0  0  0  0  0  0  0  0  0  0  0
    2.6137   -1.5622   -1.4789 N   0  0  0  0  0  0  0  0  0  0  0  0
    1.3351   -1.2029   -1.3752 N   0  0  0  0  0  0  0  0  0  0  0  0
   -5.0678    1.3460   -0.8626 H   0  0  0  0  0  0  0  0  0  0  0  0
   -3.4489    1.8180   -1.5837 H   0  0  0  0  0  0  0  0  0  0  0  0
   -4.5849    0.7722   -2.4854 H   0  0  0  0  0  0  0  0  0  0  0  0
   -5.7876    0.5385    1.3776 H   0  0  0  0  0  0  0  0  0  0  0  0
   -5.7228   -0.9620    0.3252 H   0  0  0  0  0  0  0  0  0  0  0  0
   -6.2080   -1.0670    2.0422 H   0  0  0  0  0  0  0  0  0  0  0  0
   -0.6339    1.1823   -0.3911 H   0  0  0  0  0  0  0  0  0  0  0  0
   -0.9930   -0.2505   -1.4083 H   0  0  0  0  0  0  0  0  0  0  0  0
    3.9519    1.4889    1.6218 H   0  0  0  0  0  0  0  0  0  0  0  0
    6.3033    0.7908    1.3937 H   0  0  0  0  0  0  0  0  0  0  0  0
    6.9281   -1.0130   -0.1858 H   0  0  0  0  0  0  0  0  0  0  0  0
    5.1911   -2.1309   -1.5488 H   0  0  0  0  0  0  0  0  0  0  0  0
  1  2  1  0
  2  3  1  0
  3  4  2  0
  3  5  1  0
  5  6  1  0
  3  7  1  0
  7  8  1  0
  8  9  1  0
  9 19  1  0
  9 10  1  0
 10 11  2  0
 10 12  1  0
 12 17  2  0
 12 13  1  0
 13 14  2  0
 14 15  1  0
 15 16  2  0
 16 17  1  0
 17 18  1  0
 18 19  2  0
  1 20  1  0
  1 21  1  0
  1 22  1  0
  6 23  1  0
  6 24  1  0
  6 25  1  0
  8 26  1  0
  8 27  1  0
 13 28  1  0
 14 29  1  0
 15 30  1  0
 16 31  1  0
M  END
>  <partial_charges>  (7) 
0.125699996948
-0.497599989176
0.870199978352
-0.429899990559
-0.497599989176
0.125699996948
-0.42230001092
0.345999985933
-0.276300013065
0.693799972534
-0.59659999609
-0.163499996066
-0.0643000006676
-0.131400004029
-0.0995000004768
-0.0932999998331
0.109200000763
-0.229599997401
0.0248000007123
0.0681999996305
0.0681999996305
0.0681999996305
0.0681999996305
0.0681999996305
0.0681999996305
0.0909999981523
0.0909999981523
0.163699999452
0.145600005984
0.144700005651
0.161300003529

>  <partial_bond_orders>  (7) 
1.0
1.0
2.0
1.0
1.0
1.0
1.0
1.0
1.0
1.0
2.0
1.0
2.0
1.0
2.0
1.0
2.0
1.0
1.0
2.0
1.0
1.0
1.0
1.0
1.0
1.0
1.0
1.0
1.0
1.0
1.0
1.0

>  <atom_types>  (7) 
c3
os
p5
s
os
c3
ss
c3
n
c
o
ca
ca
ca
ca
ca
ca
nc
nd
h1
h1
h1
h1
h1
h1
h2
h2
ha
ha
ha
ha

$$$$
conf_7
     RDKit          3D

 31 32  0  0  0  0  0  0  0  0999 V2000
   -4.8966    1.3702   -1.1482 C   0  0  0  0  0  0  0  0  0  0  0  0
   -3.5980    0.8394   -1.0364 O   0  0  0  0  0  0  0  0  0  0  0  0
   -3.1989    0.6860    0.6194 P   0  0  0  0  0  0  0  0  0  0  0  0
   -2.9621    2.2481    1.3270 S   0  0  0  0  0  0  0  0  0  0  0  0
   -4.4441   -0.1136    1.4718 O   0  0  0  0  0  0  0  0  0  0  0  0
   -4.5203   -1.4413    1.0140 C   0  0  0  0  0  0  0  0  0  0  0  0
   -1.3771   -0.3956    0.8000 S   0  0  0  0  0  0  0  0  0  0  0  0
   -0.5057    0.5419   -0.5004 C   0  0  0  0  0  0  0  0  0  0  0  0
    0.8842    0.0883   -0.5835 N   0  0  0  0  0  0  0  0  0  0  0  0
    1.8342    0.5396    0.2930 C   0  0  0  0  0  0  0  0  0  0  0  0
    1.5311    1.3802    1.1859 O   0  0  0  0  0  0  0  0  0  0  0  0
    3.1471    0.0582    0.1929 C   0  0  0  0  0  0  0  0  0  0  0  0
    4.1767    0.4822    1.0540 C   0  0  0  0  0  0  0  0  0  0  0  0
    5.4687   -0.0338    0.9071 C   0  0  0  0  0  0  0  0  0  0  0  0
    5.7418   -0.9715   -0.0934 C   0  0  0  0  0  0  0  0  0  0  0  0
    4.7242   -1.3983   -0.9516 C   0  0  0  0  0  0  0  0  0  0  0  0
    3.4296   -0.8855   -0.8098 C   0  0  0  0  0  0  0  0  0  0  0  0
    2.4377   -1.2970   -1.6345 N   0  0  0  0  0  0  0  0  0  0  0  0
    1.2008   -0.8178   -1.5125 N   0  0  0  0  0  0  0  0  0  0  0  0
   -5.1485    1.4539   -2.2251 H   0  0  0  0  0  0  0  0  0  0  0  0
   -5.6544    0.7025   -0.6850 H   0  0  0  0  0  0  0  0  0  0  0  0
   -4.9572    2.3924   -0.7161 H   0  0  0  0  0  0  0  0  0  0  0  0
   -4.6236   -1.5004   -0.0923 H   0  0  0  0  0  0  0  0  0  0  0  0
   -3.6435   -2.0296    1.3582 H   0  0  0  0  0  0  0  0  0  0  0  0
   -5.4240   -1.9112    1.4530 H   0  0  0  0  0  0  0  0  0  0  0  0
   -1.0142    0.3739   -1.4742 H   0  0  0  0  0  0  0  0  0  0  0  0
   -0.5405    1.6315   -0.2855 H   0  0  0  0  0  0  0  0  0  0  0  0
    3.9872    1.2075    1.8356 H   0  0  0  0  0  0  0  0  0  0  0  0
    6.2593    0.2937    1.5698 H   0  0  0  0  0  0  0  0  0  0  0  0
    6.7429   -1.3682   -0.2032 H   0  0  0  0  0  0  0  0  0  0  0  0
    4.9430   -2.1258   -1.7235 H   0  0  0  0  0  0  0  0  0  0  0  0
  1  2  1  0
  2  3  1  0
  3  4  2  0
  3  5  1  0
  5  6  1  0
  3  7  1  0
  7  8  1  0
  8  9  1  0
  9 19  1  0
  9 10  1  0
 10 11  2  0
 10 12  1  0
 12 17  2  0
 12 13  1  0
 13 14  2  0
 14 15  1  0
 15 16  2  0
 16 17  1  0
 17 18  1  0
 18 19  2  0
  1 20  1  0
  1 21  1  0
  1 22  1  0
  6 23  1  0
  6 24  1  0
  6 25  1  0
  8 26  1  0
  8 27  1  0
 13 28  1  0
 14 29  1  0
 15 30  1  0
 16 31  1  0
M  END
>  <partial_charges>  (8) 
0.125699996948
-0.497599989176
0.870199978352
-0.429899990559
-0.497599989176
0.125699996948
-0.42230001092
0.345999985933
-0.276300013065
0.693799972534
-0.59659999609
-0.163499996066
-0.0643000006676
-0.131400004029
-0.0995000004768
-0.0932999998331
0.109200000763
-0.229599997401
0.0248000007123
0.0681999996305
0.0681999996305
0.0681999996305
0.0681999996305
0.0681999996305
0.0681999996305
0.0909999981523
0.0909999981523
0.163699999452
0.145600005984
0.144700005651
0.161300003529

>  <partial_bond_orders>  (8) 
1.0
1.0
2.0
1.0
1.0
1.0
1.0
1.0
1.0
1.0
2.0
1.0
2.0
1.0
2.0
1.0
2.0
1.0
1.0
2.0
1.0
1.0
1.0
1.0
1.0
1.0
1.0
1.0
1.0
1.0
1.0
1.0

>  <atom_types>  (8) 
c3
os
p5
s
os
c3
ss
c3
n
c
o
ca
ca
ca
ca
ca
ca
nc
nd
h1
h1
h1
h1
h1
h1
h2
h2
ha
ha
ha
ha

$$$$
conf_8
     RDKit          3D

 31 32  0  0  0  0  0  0  0  0999 V2000
   -3.8675    2.8819    0.2007 C   0  0  0  0  0  0  0  0  0  0  0  0
   -4.6011    1.8134   -0.3478 O   0  0  0  0  0  0  0  0  0  0  0  0
   -3.7399    0.3531   -0.1230 P   0  0  0  0  0  0  0  0  0  0  0  0
   -3.9512   -0.1506    1.5244 S   0  0  0  0  0  0  0  0  0  0  0  0
   -4.4741   -0.7872   -1.1661 O   0  0  0  0  0  0  0  0  0  0  0  0
   -3.6960   -1.9571   -1.2146 C   0  0  0  0  0  0  0  0  0  0  0  0
   -1.6799    0.6462   -0.6447 S   0  0  0  0  0  0  0  0  0  0  0  0
   -0.9454   -0.5191    0.5549 C   0  0  0  0  0  0  0  0  0  0  0  0
    0.4813   -0.6804    0.2667 N   0  0  0  0  0  0  0  0  0  0  0  0
    1.4026    0.2415    0.6865 C   0  0  0  0  0  0  0  0  0  0  0  0
    1.0385    1.2486    1.3565 O   0  0  0  0  0  0  0  0  0  0  0  0
    2.7547    0.0596    0.3635 C   0  0  0  0  0  0  0  0  0  0  0  0
    3.7574    0.9612    0.7671 C   0  0  0  0  0  0  0  0  0  0  0  0
    5.0909    0.7284    0.4145 C   0  0  0  0  0  0  0  0  0  0  0  0
    5.4325   -0.3983   -0.3396 C   0  0  0  0  0  0  0  0  0  0  0  0
    4.4419   -1.2976   -0.7452 C   0  0  0  0  0  0  0  0  0  0  0  0
    3.1060   -1.0702   -0.3952 C   0  0  0  0  0  0  0  0  0  0  0  0
    2.1405   -1.9343   -0.7879 N   0  0  0  0  0  0  0  0  0  0  0  0
    0.8647   -1.7321   -0.4622 N   0  0  0  0  0  0  0  0  0  0  0  0
   -2.9900    3.1243   -0.4347 H   0  0  0  0  0  0  0  0  0  0  0  0
   -3.5555    2.6878    1.2507 H   0  0  0  0  0  0  0  0  0  0  0  0
   -4.5176    3.7805    0.2152 H   0  0  0  0  0  0  0  0  0  0  0  0
   -2.7107   -1.7666   -1.6898 H   0  0  0  0  0  0  0  0  0  0  0  0
   -3.5794   -2.4155   -0.2090 H   0  0  0  0  0  0  0  0  0  0  0  0
   -4.2225   -2.6991   -1.8489 H   0  0  0  0  0  0  0  0  0  0  0  0
   -1.0851   -0.1353    1.5880 H   0  0  0  0  0  0  0  0  0  0  0  0
   -1.4504   -1.5046    0.4896 H   0  0  0  0  0  0  0  0  0  0  0  0
    3.5150    1.8403    1.3516 H   0  0  0  0  0  0  0  0  0  0  0  0
    5.8608    1.4225    0.7261 H   0  0  0  0  0  0  0  0  0  0  0  0
    6.4655   -0.5743   -0.6104 H   0  0  0  0  0  0  0  0  0  0  0  0
    4.7139   -2.1675   -1.3302 H   0  0  0  0  0  0  0  0  0  0  0  0
  1  2  1  0
  2  3  1  0
  3  4  2  0
  3  5  1  0
  5  6  1  0
  3  7  1  0
  7  8  1  0
  8  9  1  0
  9 19  1  0
  9 10  1  0
 10 11  2  0
 10 12  1  0
 12 17  2  0
 12 13  1  0
 13 14  2  0
 14 15  1  0
 15 16  2  0
 16 17  1  0
 17 18  1  0
 18 19  2  0
  1 20  1  0
  1 21  1  0
  1 22  1  0
  6 23  1  0
  6 24  1  0
  6 25  1  0
  8 26  1  0
  8 27  1  0
 13 28  1  0
 14 29  1  0
 15 30  1  0
 16 31  1  0
M  END
>  <partial_charges>  (9) 
0.125699996948
-0.497599989176
0.870199978352
-0.429899990559
-0.497599989176
0.125699996948
-0.42230001092
0.345999985933
-0.276300013065
0.693799972534
-0.59659999609
-0.163499996066
-0.0643000006676
-0.131400004029
-0.0995000004768
-0.0932999998331
0.109200000763
-0.229599997401
0.0248000007123
0.0681999996305
0.0681999996305
0.0681999996305
0.0681999996305
0.0681999996305
0.0681999996305
0.0909999981523
0.0909999981523
0.163699999452
0.145600005984
0.144700005651
0.161300003529

>  <partial_bond_orders>  (9) 
1.0
1.0
2.0
1.0
1.0
1.0
1.0
1.0
1.0
1.0
2.0
1.0
2.0
1.0
2.0
1.0
2.0
1.0
1.0
2.0
1.0
1.0
1.0
1.0
1.0
1.0
1.0
1.0
1.0
1.0
1.0
1.0

>  <atom_types>  (9) 
c3
os
p5
s
os
c3
ss
c3
n
c
o
ca
ca
ca
ca
ca
ca
nc
nd
h1
h1
h1
h1
h1
h1
h2
h2
ha
ha
ha
ha

$$$$
