conf_0
     RDKit          3D

 40 41  0  0  1  0  0  0  0  0999 V2000
   -3.8388    3.7991    0.2200 C   0  0  0  0  0  0  0  0  0  0  0  0
   -2.7606    2.8249    0.6680 C   0  0  0  0  0  0  0  0  0  0  0  0
   -2.6792    1.7717   -0.2634 O   0  0  0  0  0  0  0  0  0  0  0  0
   -1.2827    0.8306    0.0504 P   0  0  0  0  0  0  0  0  0  0  0  0
    0.0733    1.6455   -0.6492 S   0  0  0  0  0  0  0  0  0  0  0  0
   -1.4465   -0.6848   -0.7159 O   0  0  0  0  0  0  0  0  0  0  0  0
   -2.7935   -1.0870   -0.6381 C   0  0  0  0  0  0  0  0  0  0  0  0
   -2.9312   -2.4857   -1.2209 C   0  0  0  0  0  0  0  0  0  0  0  0
   -0.9796    0.5901    2.1573 S   0  0  0  0  0  0  0  0  0  0  0  0
    0.2346   -0.7979    2.2122 C   0  0  1  0  0  0  0  0  0  0  0  0
    0.6775   -0.7581    3.2311 H   0  0  0  0  0  0  0  0  0  0  0  0
   -0.4377   -2.1731    2.1075 C   0  0  0  0  0  0  0  0  0  0  0  0
   -1.5475   -2.4529    3.4765 Cl  0  0  0  0  0  0  0  0  0  0  0  0
    1.3403   -0.6132    1.2619 N   0  0  0  0  0  0  0  0  0  0  0  0
    1.6701   -1.3360    0.0645 C   0  0  0  0  0  0  0  0  0  0  0  0
    0.9848   -2.2717   -0.4255 O   0  0  0  0  0  0  0  0  0  0  0  0
    2.9135   -0.8250   -0.5005 C   0  0  0  0  0  0  0  0  0  0  0  0
    3.6089   -1.1955   -1.6501 C   0  0  0  0  0  0  0  0  0  0  0  0
    4.7969   -0.5068   -1.9538 C   0  0  0  0  0  0  0  0  0  0  0  0
    5.2592    0.5279   -1.1117 C   0  0  0  0  0  0  0  0  0  0  0  0
    4.5380    0.8836    0.0421 C   0  0  0  0  0  0  0  0  0  0  0  0
    3.3650    0.1846    0.3212 C   0  0  0  0  0  0  0  0  0  0  0  0
    2.4116    0.3241    1.4146 C   0  0  0  0  0  0  0  0  0  0  0  0
    2.5011    1.1496    2.3619 O   0  0  0  0  0  0  0  0  0  0  0  0
   -3.5803    4.2201   -0.7748 H   0  0  0  0  0  0  0  0  0  0  0  0
   -4.8177    3.2787    0.1525 H   0  0  0  0  0  0  0  0  0  0  0  0
   -3.9224    4.6301    0.9520 H   0  0  0  0  0  0  0  0  0  0  0  0
   -1.8024    3.3877    0.7442 H   0  0  0  0  0  0  0  0  0  0  0  0
   -3.0490    2.4316    1.6668 H   0  0  0  0  0  0  0  0  0  0  0  0
   -3.1466   -1.1119    0.4186 H   0  0  0  0  0  0  0  0  0  0  0  0
   -3.4402   -0.4084   -1.2374 H   0  0  0  0  0  0  0  0  0  0  0  0
   -2.6033   -2.4885   -2.2821 H   0  0  0  0  0  0  0  0  0  0  0  0
   -2.3099   -3.2054   -0.6480 H   0  0  0  0  0  0  0  0  0  0  0  0
   -3.9922   -2.8097   -1.1715 H   0  0  0  0  0  0  0  0  0  0  0  0
   -1.0124   -2.2690    1.1721 H   0  0  0  0  0  0  0  0  0  0  0  0
    0.3362   -2.9693    2.1324 H   0  0  0  0  0  0  0  0  0  0  0  0
    3.2457   -1.9880   -2.2914 H   0  0  0  0  0  0  0  0  0  0  0  0
    5.3595   -0.7710   -2.8397 H   0  0  0  0  0  0  0  0  0  0  0  0
    6.1741    1.0518   -1.3561 H   0  0  0  0  0  0  0  0  0  0  0  0
    4.8833    1.6772    0.6918 H   0  0  0  0  0  0  0  0  0  0  0  0
  1  2  1  0
  2  3  1  0
  3  4  1  0
  4  5  2  0
  4  6  1  0
  6  7  1  0
  7  8  1  0
  4  9  1  0
  9 10  1  0
 10 11  1  1
 10 12  1  0
 12 13  1  0
 10 14  1  0
 14 23  1  0
 14 15  1  0
 15 16  2  0
 15 17  1  0
 17 22  2  0
 17 18  1  0
 18 19  2  0
 19 20  1  0
 20 21  2  0
 21 22  1  0
 22 23  1  0
 23 24  2  0
  1 25  1  0
  1 26  1  0
  1 27  1  0
  2 28  1  0
  2 29  1  0
  7 30  1  0
  7 31  1  0
  8 32  1  0
  8 33  1  0
  8 34  1  0
 12 35  1  0
 12 36  1  0
 18 37  1  0
 19 38  1  0
 20 39  1  0
 21 40  1  0
M  END
>  <partial_charges>  (1) 
-0.0961000025272
0.132400006056
-0.497500002384
0.915899991989
-0.482699990273
-0.497500002384
0.132400006056
-0.0961000025272
-0.55529999733
0.407200008631
0.118900001049
0.00270000007004
-0.178000003099
-0.503600001335
0.735700011253
-0.54439997673
-0.133900001645
-0.0593000017107
-0.114299997687
-0.114299997687
-0.0593000017107
-0.133900001645
0.735700011253
-0.54439997673
0.055799998343
0.055799998343
0.055799998343
0.0653000026941
0.0653000026941
0.0653000026941
0.0653000026941
0.055799998343
0.055799998343
0.055799998343
0.108099997044
0.108099997044
0.16210000217
0.146400004625
0.146400004625
0.16210000217

>  <partial_bond_orders>  (1) 
1.0
1.0
1.0
2.0
1.0
1.0
1.0
1.0
1.0
1.0
1.0
1.0
1.0
1.0
1.0
2.0
1.0
2.0
1.0
2.0
1.0
2.0
1.0
1.0
2.0
1.0
1.0
1.0
1.0
1.0
1.0
1.0
1.0
1.0
1.0
1.0
1.0
1.0
1.0
1.0
1.0

>  <atom_types>  (1) 
c3
c3
os
p5
s
os
c3
c3
ss
c3
h2
c3
cl
n
c
o
ca
ca
ca
ca
ca
ca
c
o
hc
hc
hc
h1
h1
h1
h1
hc
hc
hc
h1
h1
ha
ha
ha
ha

$$$$
conf_1
     RDKit          3D

 40 41  0  0  1  0  0  0  0  0999 V2000
   -3.7682    3.2997    0.5560 C   0  0  0  0  0  0  0  0  0  0  0  0
   -3.1364    2.2446    1.4500 C   0  0  0  0  0  0  0  0  0  0  0  0
   -3.2738    0.9834    0.8363 O   0  0  0  0  0  0  0  0  0  0  0  0
   -2.4347   -0.1981    1.7509 P   0  0  0  0  0  0  0  0  0  0  0  0
   -3.1506   -0.3732    3.3177 S   0  0  0  0  0  0  0  0  0  0  0  0
   -2.4970   -1.7184    0.9746 O   0  0  0  0  0  0  0  0  0  0  0  0
   -3.6484   -1.7729    0.1680 C   0  0  0  0  0  0  0  0  0  0  0  0
   -3.7818   -3.1723   -0.4119 C   0  0  0  0  0  0  0  0  0  0  0  0
   -0.3874    0.3295    2.0009 S   0  0  0  0  0  0  0  0  0  0  0  0
    0.1358    0.0323    0.2623 C   0  0  1  0  0  0  0  0  0  0  0  0
   -0.4076   -0.8579   -0.1153 H   0  0  0  0  0  0  0  0  0  0  0  0
   -0.2054    1.2084   -0.6670 C   0  0  0  0  0  0  0  0  0  0  0  0
    0.4804    2.7615   -0.1139 Cl  0  0  0  0  0  0  0  0  0  0  0  0
    1.5702   -0.2739    0.2015 N   0  0  0  0  0  0  0  0  0  0  0  0
    2.2040   -1.0715   -0.8048 C   0  0  0  0  0  0  0  0  0  0  0  0
    1.5844   -1.7909   -1.6328 O   0  0  0  0  0  0  0  0  0  0  0  0
    3.6510   -0.9076   -0.7452 C   0  0  0  0  0  0  0  0  0  0  0  0
    4.6646   -1.4798   -1.5121 C   0  0  0  0  0  0  0  0  0  0  0  0
    5.9929   -1.1153   -1.2276 C   0  0  0  0  0  0  0  0  0  0  0  0
    6.2766   -0.1937   -0.1962 C   0  0  0  0  0  0  0  0  0  0  0  0
    5.2347    0.3721    0.5604 C   0  0  0  0  0  0  0  0  0  0  0  0
    3.9276   -0.0084    0.2607 C   0  0  0  0  0  0  0  0  0  0  0  0
    2.6582    0.4044    0.8470 C   0  0  0  0  0  0  0  0  0  0  0  0
    2.5280    1.2407    1.7797 O   0  0  0  0  0  0  0  0  0  0  0  0
   -3.6736    4.2997    1.0298 H   0  0  0  0  0  0  0  0  0  0  0  0
   -3.2554    3.3183   -0.4292 H   0  0  0  0  0  0  0  0  0  0  0  0
   -4.8448    3.0736    0.4029 H   0  0  0  0  0  0  0  0  0  0  0  0
   -2.0689    2.5183    1.5912 H   0  0  0  0  0  0  0  0  0  0  0  0
   -3.6608    2.2645    2.4303 H   0  0  0  0  0  0  0  0  0  0  0  0
   -3.5621   -1.0567   -0.6796 H   0  0  0  0  0  0  0  0  0  0  0  0
   -4.5671   -1.5550    0.7597 H   0  0  0  0  0  0  0  0  0  0  0  0
   -2.8869   -3.4176   -1.0225 H   0  0  0  0  0  0  0  0  0  0  0  0
   -3.8788   -3.9155    0.4079 H   0  0  0  0  0  0  0  0  0  0  0  0
   -4.6841   -3.2273   -1.0568 H   0  0  0  0  0  0  0  0  0  0  0  0
    0.1838    0.9984   -1.6857 H   0  0  0  0  0  0  0  0  0  0  0  0
   -1.3038    1.3187   -0.7533 H   0  0  0  0  0  0  0  0  0  0  0  0
    4.4376   -2.1825   -2.3032 H   0  0  0  0  0  0  0  0  0  0  0  0
    6.8026   -1.5427   -1.8046 H   0  0  0  0  0  0  0  0  0  0  0  0
    7.3024    0.0808    0.0126 H   0  0  0  0  0  0  0  0  0  0  0  0
    5.4426    1.0820    1.3503 H   0  0  0  0  0  0  0  0  0  0  0  0
  1  2  1  0
  2  3  1  0
  3  4  1  0
  4  5  2  0
  4  6  1  0
  6  7  1  0
  7  8  1  0
  4  9  1  0
  9 10  1  0
 10 11  1  6
 10 12  1  0
 12 13  1  0
 10 14  1  0
 14 23  1  0
 14 15  1  0
 15 16  2  0
 15 17  1  0
 17 22  2  0
 17 18  1  0
 18 19  2  0
 19 20  1  0
 20 21  2  0
 21 22  1  0
 22 23  1  0
 23 24  2  0
  1 25  1  0
  1 26  1  0
  1 27  1  0
  2 28  1  0
  2 29  1  0
  7 30  1  0
  7 31  1  0
  8 32  1  0
  8 33  1  0
  8 34  1  0
 12 35  1  0
 12 36  1  0
 18 37  1  0
 19 38  1  0
 20 39  1  0
 21 40  1  0
M  END
>  <partial_charges>  (2) 
-0.0961000025272
0.132400006056
-0.497500002384
0.915899991989
-0.482699990273
-0.497500002384
0.132400006056
-0.0961000025272
-0.55529999733
0.407200008631
0.118900001049
0.00270000007004
-0.178000003099
-0.503600001335
0.735700011253
-0.54439997673
-0.133900001645
-0.0593000017107
-0.114299997687
-0.114299997687
-0.0593000017107
-0.133900001645
0.735700011253
-0.54439997673
0.055799998343
0.055799998343
0.055799998343
0.0653000026941
0.0653000026941
0.0653000026941
0.0653000026941
0.055799998343
0.055799998343
0.055799998343
0.108099997044
0.108099997044
0.16210000217
0.146400004625
0.146400004625
0.16210000217

>  <partial_bond_orders>  (2) 
1.0
1.0
1.0
2.0
1.0
1.0
1.0
1.0
1.0
1.0
1.0
1.0
1.0
1.0
1.0
2.0
1.0
2.0
1.0
2.0
1.0
2.0
1.0
1.0
2.0
1.0
1.0
1.0
1.0
1.0
1.0
1.0
1.0
1.0
1.0
1.0
1.0
1.0
1.0
1.0
1.0

>  <atom_types>  (2) 
c3
c3
os
p5
s
os
c3
c3
ss
c3
h2
c3
cl
n
c
o
ca
ca
ca
ca
ca
ca
c
o
hc
hc
hc
h1
h1
h1
h1
hc
hc
hc
h1
h1
ha
ha
ha
ha

$$$$
conf_2
     RDKit          3D

 40 41  0  0  1  0  0  0  0  0999 V2000
   -1.5979    3.7249    0.1063 C   0  0  0  0  0  0  0  0  0  0  0  0
   -1.5874    2.2344    0.4059 C   0  0  0  0  0  0  0  0  0  0  0  0
   -2.8053    1.6725   -0.0204 O   0  0  0  0  0  0  0  0  0  0  0  0
   -2.8438    0.0022    0.3523 P   0  0  0  0  0  0  0  0  0  0  0  0
   -3.0709   -0.2125    2.0592 S   0  0  0  0  0  0  0  0  0  0  0  0
   -4.2253   -0.6168   -0.4438 O   0  0  0  0  0  0  0  0  0  0  0  0
   -4.1543   -2.0235   -0.4965 C   0  0  0  0  0  0  0  0  0  0  0  0
   -5.5028   -2.5709   -0.9374 C   0  0  0  0  0  0  0  0  0  0  0  0
   -1.0908   -0.9968   -0.3806 S   0  0  0  0  0  0  0  0  0  0  0  0
    0.0177   -0.7572    1.0622 C   0  0  1  0  0  0  0  0  0  0  0  0
   -0.3629    0.0474    1.7183 H   0  0  0  0  0  0  0  0  0  0  0  0
    0.0846   -2.0476    1.8838 C   0  0  0  0  0  0  0  0  0  0  0  0
    1.0784   -1.8165    3.3467 Cl  0  0  0  0  0  0  0  0  0  0  0  0
    1.3517   -0.3774    0.5896 N   0  0  0  0  0  0  0  0  0  0  0  0
    2.2089   -1.0829   -0.3154 C   0  0  0  0  0  0  0  0  0  0  0  0
    1.9146   -2.1727   -0.8741 O   0  0  0  0  0  0  0  0  0  0  0  0
    3.4568   -0.3491   -0.4924 C   0  0  0  0  0  0  0  0  0  0  0  0
    4.5790   -0.6365   -1.2672 C   0  0  0  0  0  0  0  0  0  0  0  0
    5.6511    0.2735   -1.2390 C   0  0  0  0  0  0  0  0  0  0  0  0
    5.5798    1.4393   -0.4455 C   0  0  0  0  0  0  0  0  0  0  0  0
    4.4358    1.7067    0.3276 C   0  0  0  0  0  0  0  0  0  0  0  0
    3.3872    0.7898    0.2826 C   0  0  0  0  0  0  0  0  0  0  0  0
    2.0949    0.7879    0.9583 C   0  0  0  0  0  0  0  0  0  0  0  0
    1.6815    1.6737    1.7527 O   0  0  0  0  0  0  0  0  0  0  0  0
   -1.7198    3.8928   -0.9849 H   0  0  0  0  0  0  0  0  0  0  0  0
   -0.6402    4.1807    0.4357 H   0  0  0  0  0  0  0  0  0  0  0  0
   -2.4352    4.2157    0.6466 H   0  0  0  0  0  0  0  0  0  0  0  0
   -0.7314    1.7878   -0.1438 H   0  0  0  0  0  0  0  0  0  0  0  0
   -1.4522    2.1123    1.5030 H   0  0  0  0  0  0  0  0  0  0  0  0
   -3.9148   -2.4685    0.4960 H   0  0  0  0  0  0  0  0  0  0  0  0
   -3.3959   -2.3416   -1.2440 H   0  0  0  0  0  0  0  0  0  0  0  0
   -5.7683   -2.1686   -1.9382 H   0  0  0  0  0  0  0  0  0  0  0  0
   -6.2877   -2.2796   -0.2075 H   0  0  0  0  0  0  0  0  0  0  0  0
   -5.4582   -3.6790   -0.9952 H   0  0  0  0  0  0  0  0  0  0  0  0
   -0.9363   -2.3448    2.2024 H   0  0  0  0  0  0  0  0  0  0  0  0
    0.5139   -2.8753    1.2818 H   0  0  0  0  0  0  0  0  0  0  0  0
    4.6252   -1.5323   -1.8727 H   0  0  0  0  0  0  0  0  0  0  0  0
    6.5367    0.0785   -1.8297 H   0  0  0  0  0  0  0  0  0  0  0  0
    6.4111    2.1321   -0.4320 H   0  0  0  0  0  0  0  0  0  0  0  0
    4.3726    2.5979    0.9384 H   0  0  0  0  0  0  0  0  0  0  0  0
  1  2  1  0
  2  3  1  0
  3  4  1  0
  4  5  2  0
  4  6  1  0
  6  7  1  0
  7  8  1  0
  4  9  1  0
  9 10  1  0
 10 11  1  1
 10 12  1  0
 12 13  1  0
 10 14  1  0
 14 23  1  0
 14 15  1  0
 15 16  2  0
 15 17  1  0
 17 22  2  0
 17 18  1  0
 18 19  2  0
 19 20  1  0
 20 21  2  0
 21 22  1  0
 22 23  1  0
 23 24  2  0
  1 25  1  0
  1 26  1  0
  1 27  1  0
  2 28  1  0
  2 29  1  0
  7 30  1  0
  7 31  1  0
  8 32  1  0
  8 33  1  0
  8 34  1  0
 12 35  1  0
 12 36  1  0
 18 37  1  0
 19 38  1  0
 20 39  1  0
 21 40  1  0
M  END
>  <partial_charges>  (3) 
-0.0961000025272
0.132400006056
-0.497500002384
0.915899991989
-0.482699990273
-0.497500002384
0.132400006056
-0.0961000025272
-0.55529999733
0.407200008631
0.118900001049
0.00270000007004
-0.178000003099
-0.503600001335
0.735700011253
-0.54439997673
-0.133900001645
-0.0593000017107
-0.114299997687
-0.114299997687
-0.0593000017107
-0.133900001645
0.735700011253
-0.54439997673
0.055799998343
0.055799998343
0.055799998343
0.0653000026941
0.0653000026941
0.0653000026941
0.0653000026941
0.055799998343
0.055799998343
0.055799998343
0.108099997044
0.108099997044
0.16210000217
0.146400004625
0.146400004625
0.16210000217

>  <partial_bond_orders>  (3) 
1.0
1.0
1.0
2.0
1.0
1.0
1.0
1.0
1.0
1.0
1.0
1.0
1.0
1.0
1.0
2.0
1.0
2.0
1.0
2.0
1.0
2.0
1.0
1.0
2.0
1.0
1.0
1.0
1.0
1.0
1.0
1.0
1.0
1.0
1.0
1.0
1.0
1.0
1.0
1.0
1.0

>  <atom_types>  (3) 
c3
c3
os
p5
s
os
c3
c3
ss
c3
h2
c3
cl
n
c
o
ca
ca
ca
ca
ca
ca
c
o
hc
hc
hc
h1
h1
h1
h1
hc
hc
hc
h1
h1
ha
ha
ha
ha

$$$$
conf_3
     RDKit          3D

 40 41  0  0  1  0  0  0  0  0999 V2000
   -4.6123    3.0880    2.1424 C   0  0  0  0  0  0  0  0  0  0  0  0
   -3.4532    2.5797    1.2995 C   0  0  0  0  0  0  0  0  0  0  0  0
   -3.5890    1.1887    1.1252 O   0  0  0  0  0  0  0  0  0  0  0  0
   -2.4533    0.6438   -0.0344 P   0  0  0  0  0  0  0  0  0  0  0  0
   -3.0081    1.0421   -1.6264 S   0  0  0  0  0  0  0  0  0  0  0  0
   -2.2692   -1.0503    0.0856 O   0  0  0  0  0  0  0  0  0  0  0  0
   -3.5147   -1.6255    0.4008 C   0  0  0  0  0  0  0  0  0  0  0  0
   -3.3877   -3.1401    0.3507 C   0  0  0  0  0  0  0  0  0  0  0  0
   -0.5396    1.5222    0.2941 S   0  0  0  0  0  0  0  0  0  0  0  0
    0.3737    0.5777   -0.9947 C   0  0  1  0  0  0  0  0  0  0  0  0
   -0.2577   -0.2597   -1.3564 H   0  0  0  0  0  0  0  0  0  0  0  0
    0.6810    1.4585   -2.2144 C   0  0  0  0  0  0  0  0  0  0  0  0
    1.6834    2.8819   -1.8161 Cl  0  0  0  0  0  0  0  0  0  0  0  0
    1.6033   -0.0065   -0.4448 N   0  0  0  0  0  0  0  0  0  0  0  0
    2.2569   -1.1792   -0.9426 C   0  0  0  0  0  0  0  0  0  0  0  0
    1.7500   -1.9707   -1.7812 O   0  0  0  0  0  0  0  0  0  0  0  0
    3.5867   -1.3047   -0.3593 C   0  0  0  0  0  0  0  0  0  0  0  0
    4.5721   -2.2738   -0.5394 C   0  0  0  0  0  0  0  0  0  0  0  0
    5.7827   -2.1218    0.1603 C   0  0  0  0  0  0  0  0  0  0  0  0
    5.9817   -1.0144    1.0134 C   0  0  0  0  0  0  0  0  0  0  0  0
    4.9720   -0.0487    1.1748 C   0  0  0  0  0  0  0  0  0  0  0  0
    3.7807   -0.2243    0.4727 C   0  0  0  0  0  0  0  0  0  0  0  0
    2.5755    0.5946    0.4238 C   0  0  0  0  0  0  0  0  0  0  0  0
    2.4093    1.6778    1.0445 O   0  0  0  0  0  0  0  0  0  0  0  0
   -4.5132    4.1833    2.2968 H   0  0  0  0  0  0  0  0  0  0  0  0
   -5.5749    2.8824    1.6276 H   0  0  0  0  0  0  0  0  0  0  0  0
   -4.6133    2.5835    3.1320 H   0  0  0  0  0  0  0  0  0  0  0  0
   -3.4742    3.1234    0.3278 H   0  0  0  0  0  0  0  0  0  0  0  0
   -2.5102    2.8102    1.8407 H   0  0  0  0  0  0  0  0  0  0  0  0
   -3.8250   -1.3400    1.4305 H   0  0  0  0  0  0  0  0  0  0  0  0
   -4.2998   -1.3225   -0.3292 H   0  0  0  0  0  0  0  0  0  0  0  0
   -2.6237   -3.4821    1.0810 H   0  0  0  0  0  0  0  0  0  0  0  0
   -4.3626   -3.6078    0.6037 H   0  0  0  0  0  0  0  0  0  0  0  0
   -3.0871   -3.4624   -0.6689 H   0  0  0  0  0  0  0  0  0  0  0  0
    1.2136    0.8572   -2.9814 H   0  0  0  0  0  0  0  0  0  0  0  0
   -0.2685    1.8168   -2.6633 H   0  0  0  0  0  0  0  0  0  0  0  0
    4.4122   -3.1176   -1.1980 H   0  0  0  0  0  0  0  0  0  0  0  0
    6.5674   -2.8578    0.0425 H   0  0  0  0  0  0  0  0  0  0  0  0
    6.9179   -0.9069    1.5454 H   0  0  0  0  0  0  0  0  0  0  0  0
    5.1172    0.8050    1.8238 H   0  0  0  0  0  0  0  0  0  0  0  0
  1  2  1  0
  2  3  1  0
  3  4  1  0
  4  5  2  0
  4  6  1  0
  6  7  1  0
  7  8  1  0
  4  9  1  0
  9 10  1  0
 10 11  1  6
 10 12  1  0
 12 13  1  0
 10 14  1  0
 14 23  1  0
 14 15  1  0
 15 16  2  0
 15 17  1  0
 17 22  2  0
 17 18  1  0
 18 19  2  0
 19 20  1  0
 20 21  2  0
 21 22  1  0
 22 23  1  0
 23 24  2  0
  1 25  1  0
  1 26  1  0
  1 27  1  0
  2 28  1  0
  2 29  1  0
  7 30  1  0
  7 31  1  0
  8 32  1  0
  8 33  1  0
  8 34  1  0
 12 35  1  0
 12 36  1  0
 18 37  1  0
 19 38  1  0
 20 39  1  0
 21 40  1  0
M  END
>  <partial_charges>  (4) 
-0.0961000025272
0.132400006056
-0.497500002384
0.915899991989
-0.482699990273
-0.497500002384
0.132400006056
-0.0961000025272
-0.55529999733
0.407200008631
0.118900001049
0.00270000007004
-0.178000003099
-0.503600001335
0.735700011253
-0.54439997673
-0.133900001645
-0.0593000017107
-0.114299997687
-0.114299997687
-0.0593000017107
-0.133900001645
0.735700011253
-0.54439997673
0.055799998343
0.055799998343
0.055799998343
0.0653000026941
0.0653000026941
0.0653000026941
0.0653000026941
0.055799998343
0.055799998343
0.055799998343
0.108099997044
0.108099997044
0.16210000217
0.146400004625
0.146400004625
0.16210000217

>  <partial_bond_orders>  (4) 
1.0
1.0
1.0
2.0
1.0
1.0
1.0
1.0
1.0
1.0
1.0
1.0
1.0
1.0
1.0
2.0
1.0
2.0
1.0
2.0
1.0
2.0
1.0
1.0
2.0
1.0
1.0
1.0
1.0
1.0
1.0
1.0
1.0
1.0
1.0
1.0
1.0
1.0
1.0
1.0
1.0

>  <atom_types>  (4) 
c3
c3
os
p5
s
os
c3
c3
ss
c3
h2
c3
cl
n
c
o
ca
ca
ca
ca
ca
ca
c
o
hc
hc
hc
h1
h1
h1
h1
hc
hc
hc
h1
h1
ha
ha
ha
ha

$$$$
conf_4
     RDKit          3D

 40 41  0  0  1  0  0  0  0  0999 V2000
   -2.7775    3.7540    0.1981 C   0  0  0  0  0  0  0  0  0  0  0  0
   -3.1773    2.2870    0.1695 C   0  0  0  0  0  0  0  0  0  0  0  0
   -2.0339    1.4955    0.3880 O   0  0  0  0  0  0  0  0  0  0  0  0
   -2.5115   -0.1358    0.5584 P   0  0  0  0  0  0  0  0  0  0  0  0
   -2.9726   -0.4207    2.2035 S   0  0  0  0  0  0  0  0  0  0  0  0
   -3.8367   -0.4641   -0.4747 O   0  0  0  0  0  0  0  0  0  0  0  0
   -3.9705   -1.8564   -0.6407 C   0  0  0  0  0  0  0  0  0  0  0  0
   -5.2870   -2.1461   -1.3444 C   0  0  0  0  0  0  0  0  0  0  0  0
   -0.8336   -1.3543    0.0651 S   0  0  0  0  0  0  0  0  0  0  0  0
    0.3632   -0.5893    1.2353 C   0  0  1  0  0  0  0  0  0  0  0  0
   -0.0510    0.3685    1.6118 H   0  0  0  0  0  0  0  0  0  0  0  0
    0.5944   -1.4855    2.4609 C   0  0  0  0  0  0  0  0  0  0  0  0
    1.2382   -3.0973    2.0397 Cl  0  0  0  0  0  0  0  0  0  0  0  0
    1.6317   -0.2837    0.5620 N   0  0  0  0  0  0  0  0  0  0  0  0
    2.5527    0.7386    0.9584 C   0  0  0  0  0  0  0  0  0  0  0  0
    2.2916    1.6406    1.7979 O   0  0  0  0  0  0  0  0  0  0  0  0
    3.8269    0.5673    0.2718 C   0  0  0  0  0  0  0  0  0  0  0  0
    5.0042    1.3105    0.3382 C   0  0  0  0  0  0  0  0  0  0  0  0
    6.0957    0.8888   -0.4420 C   0  0  0  0  0  0  0  0  0  0  0  0
    5.9897   -0.2569   -1.2603 C   0  0  0  0  0  0  0  0  0  0  0  0
    4.7914   -0.9920   -1.3054 C   0  0  0  0  0  0  0  0  0  0  0  0
    3.7238   -0.5510   -0.5255 C   0  0  0  0  0  0  0  0  0  0  0  0
    2.3835   -1.0974   -0.3510 C   0  0  0  0  0  0  0  0  0  0  0  0
    1.9462   -2.1375   -0.9107 O   0  0  0  0  0  0  0  0  0  0  0  0
   -2.3463    4.0101    1.1890 H   0  0  0  0  0  0  0  0  0  0  0  0
   -3.6698    4.3906    0.0191 H   0  0  0  0  0  0  0  0  0  0  0  0
   -2.0237    3.9591   -0.5914 H   0  0  0  0  0  0  0  0  0  0  0  0
   -3.6138    2.0681   -0.8301 H   0  0  0  0  0  0  0  0  0  0  0  0
   -3.9441    2.1253    0.9615 H   0  0  0  0  0  0  0  0  0  0  0  0
   -3.1482   -2.2487   -1.2775 H   0  0  0  0  0  0  0  0  0  0  0  0
   -3.9807   -2.3924    0.3356 H   0  0  0  0  0  0  0  0  0  0  0  0
   -5.3105   -1.6396   -2.3326 H   0  0  0  0  0  0  0  0  0  0  0  0
   -6.1348   -1.7805   -0.7271 H   0  0  0  0  0  0  0  0  0  0  0  0
   -5.3992   -3.2404   -1.4974 H   0  0  0  0  0  0  0  0  0  0  0  0
   -0.3611   -1.6259    3.0068 H   0  0  0  0  0  0  0  0  0  0  0  0
    1.3098   -0.9911    3.1517 H   0  0  0  0  0  0  0  0  0  0  0  0
    5.0777    2.1848    0.9715 H   0  0  0  0  0  0  0  0  0  0  0  0
    7.0235    1.4452   -0.4132 H   0  0  0  0  0  0  0  0  0  0  0  0
    6.8369   -0.5735   -1.8544 H   0  0  0  0  0  0  0  0  0  0  0  0
    4.7029   -1.8740   -1.9262 H   0  0  0  0  0  0  0  0  0  0  0  0
  1  2  1  0
  2  3  1  0
  3  4  1  0
  4  5  2  0
  4  6  1  0
  6  7  1  0
  7  8  1  0
  4  9  1  0
  9 10  1  0
 10 11  1  1
 10 12  1  0
 12 13  1  0
 10 14  1  0
 14 23  1  0
 14 15  1  0
 15 16  2  0
 15 17  1  0
 17 22  2  0
 17 18  1  0
 18 19  2  0
 19 20  1  0
 20 21  2  0
 21 22  1  0
 22 23  1  0
 23 24  2  0
  1 25  1  0
  1 26  1  0
  1 27  1  0
  2 28  1  0
  2 29  1  0
  7 30  1  0
  7 31  1  0
  8 32  1  0
  8 33  1  0
  8 34  1  0
 12 35  1  0
 12 36  1  0
 18 37  1  0
 19 38  1  0
 20 39  1  0
 21 40  1  0
M  END
>  <partial_charges>  (5) 
-0.0961000025272
0.132400006056
-0.497500002384
0.915899991989
-0.482699990273
-0.497500002384
0.132400006056
-0.0961000025272
-0.55529999733
0.407200008631
0.118900001049
0.00270000007004
-0.178000003099
-0.503600001335
0.735700011253
-0.54439997673
-0.133900001645
-0.0593000017107
-0.114299997687
-0.114299997687
-0.0593000017107
-0.133900001645
0.735700011253
-0.54439997673
0.055799998343
0.055799998343
0.055799998343
0.0653000026941
0.0653000026941
0.0653000026941
0.0653000026941
0.055799998343
0.055799998343
0.055799998343
0.108099997044
0.108099997044
0.16210000217
0.146400004625
0.146400004625
0.16210000217

>  <partial_bond_orders>  (5) 
1.0
1.0
1.0
2.0
1.0
1.0
1.0
1.0
1.0
1.0
1.0
1.0
1.0
1.0
1.0
2.0
1.0
2.0
1.0
2.0
1.0
2.0
1.0
1.0
2.0
1.0
1.0
1.0
1.0
1.0
1.0
1.0
1.0
1.0
1.0
1.0
1.0
1.0
1.0
1.0
1.0

>  <atom_types>  (5) 
c3
c3
os
p5
s
os
c3
c3
ss
c3
h2
c3
cl
n
c
o
ca
ca
ca
ca
ca
ca
c
o
hc
hc
hc
h1
h1
h1
h1
hc
hc
hc
h1
h1
ha
ha
ha
ha

$$$$
conf_5
     RDKit          3D

 40 41  0  0  1  0  0  0  0  0999 V2000
   -3.7546    2.8941    0.3662 C   0  0  0  0  0  0  0  0  0  0  0  0
   -3.3598    1.4264    0.4186 C   0  0  0  0  0  0  0  0  0  0  0  0
   -3.0124    1.0918    1.7410 O   0  0  0  0  0  0  0  0  0  0  0  0
   -2.3846   -0.4987    1.7914 P   0  0  0  0  0  0  0  0  0  0  0  0
   -3.1795   -1.3584    3.0708 S   0  0  0  0  0  0  0  0  0  0  0  0
   -2.4900   -1.3042    0.2757 O   0  0  0  0  0  0  0  0  0  0  0  0
   -3.7104   -2.0008    0.1556 C   0  0  0  0  0  0  0  0  0  0  0  0
   -3.9421   -2.3444   -1.3072 C   0  0  0  0  0  0  0  0  0  0  0  0
   -0.3319   -0.4026    2.3360 S   0  0  0  0  0  0  0  0  0  0  0  0
    0.2740    0.4499    0.8257 C   0  0  1  0  0  0  0  0  0  0  0  0
   -0.4227    0.2348   -0.0089 H   0  0  0  0  0  0  0  0  0  0  0  0
    0.3123    1.9734    1.0188 C   0  0  0  0  0  0  0  0  0  0  0  0
    1.4055    2.4842    2.3349 Cl  0  0  0  0  0  0  0  0  0  0  0  0
    1.5930   -0.0596    0.4295 N   0  0  0  0  0  0  0  0  0  0  0  0
    2.1221   -0.0366   -0.9009 C   0  0  0  0  0  0  0  0  0  0  0  0
    1.4443    0.2322   -1.9281 O   0  0  0  0  0  0  0  0  0  0  0  0
    3.5471   -0.3422   -0.8855 C   0  0  0  0  0  0  0  0  0  0  0  0
    4.4692   -0.4370   -1.9264 C   0  0  0  0  0  0  0  0  0  0  0  0
    5.8035   -0.7394   -1.6003 C   0  0  0  0  0  0  0  0  0  0  0  0
    6.1843   -0.9351   -0.2548 C   0  0  0  0  0  0  0  0  0  0  0  0
    5.2345   -0.8301    0.7771 C   0  0  0  0  0  0  0  0  0  0  0  0
    3.9184   -0.5328    0.4270 C   0  0  0  0  0  0  0  0  0  0  0  0
    2.7318   -0.3499    1.2541 C   0  0  0  0  0  0  0  0  0  0  0  0
    2.7061   -0.4244    2.5111 O   0  0  0  0  0  0  0  0  0  0  0  0
   -2.9027    3.5303    0.6867 H   0  0  0  0  0  0  0  0  0  0  0  0
   -4.0385    3.1699   -0.6714 H   0  0  0  0  0  0  0  0  0  0  0  0
   -4.6200    3.0793    1.0374 H   0  0  0  0  0  0  0  0  0  0  0  0
   -2.5077    1.2783   -0.2802 H   0  0  0  0  0  0  0  0  0  0  0  0
   -4.2330    0.8293    0.0820 H   0  0  0  0  0  0  0  0  0  0  0  0
   -3.6588   -2.9499    0.7326 H   0  0  0  0  0  0  0  0  0  0  0  0
   -4.5792   -1.4012    0.5083 H   0  0  0  0  0  0  0  0  0  0  0  0
   -4.0047   -1.4130   -1.9093 H   0  0  0  0  0  0  0  0  0  0  0  0
   -4.8926   -2.9083   -1.4152 H   0  0  0  0  0  0  0  0  0  0  0  0
   -3.1068   -2.9695   -1.6884 H   0  0  0  0  0  0  0  0  0  0  0  0
   -0.7032    2.3487    1.2533 H   0  0  0  0  0  0  0  0  0  0  0  0
    0.6443    2.4585    0.0766 H   0  0  0  0  0  0  0  0  0  0  0  0
    4.1690   -0.2819   -2.9545 H   0  0  0  0  0  0  0  0  0  0  0  0
    6.5433   -0.8208   -2.3859 H   0  0  0  0  0  0  0  0  0  0  0  0
    7.2143   -1.1656   -0.0155 H   0  0  0  0  0  0  0  0  0  0  0  0
    5.5182   -0.9749    1.8114 H   0  0  0  0  0  0  0  0  0  0  0  0
  1  2  1  0
  2  3  1  0
  3  4  1  0
  4  5  2  0
  4  6  1  0
  6  7  1  0
  7  8  1  0
  4  9  1  0
  9 10  1  0
 10 11  1  6
 10 12  1  0
 12 13  1  0
 10 14  1  0
 14 23  1  0
 14 15  1  0
 15 16  2  0
 15 17  1  0
 17 22  2  0
 17 18  1  0
 18 19  2  0
 19 20  1  0
 20 21  2  0
 21 22  1  0
 22 23  1  0
 23 24  2  0
  1 25  1  0
  1 26  1  0
  1 27  1  0
  2 28  1  0
  2 29  1  0
  7 30  1  0
  7 31  1  0
  8 32  1  0
  8 33  1  0
  8 34  1  0
 12 35  1  0
 12 36  1  0
 18 37  1  0
 19 38  1  0
 20 39  1  0
 21 40  1  0
M  END
>  <partial_charges>  (6) 
-0.0961000025272
0.132400006056
-0.497500002384
0.915899991989
-0.482699990273
-0.497500002384
0.132400006056
-0.0961000025272
-0.55529999733
0.407200008631
0.118900001049
0.00270000007004
-0.178000003099
-0.503600001335
0.735700011253
-0.54439997673
-0.133900001645
-0.0593000017107
-0.114299997687
-0.114299997687
-0.0593000017107
-0.133900001645
0.735700011253
-0.54439997673
0.055799998343
0.055799998343
0.055799998343
0.0653000026941
0.0653000026941
0.0653000026941
0.0653000026941
0.055799998343
0.055799998343
0.055799998343
0.108099997044
0.108099997044
0.16210000217
0.146400004625
0.146400004625
0.16210000217

>  <partial_bond_orders>  (6) 
1.0
1.0
1.0
2.0
1.0
1.0
1.0
1.0
1.0
1.0
1.0
1.0
1.0
1.0
1.0
2.0
1.0
2.0
1.0
2.0
1.0
2.0
1.0
1.0
2.0
1.0
1.0
1.0
1.0
1.0
1.0
1.0
1.0
1.0
1.0
1.0
1.0
1.0
1.0
1.0
1.0

>  <atom_types>  (6) 
c3
c3
os
p5
s
os
c3
c3
ss
c3
h2
c3
cl
n
c
o
ca
ca
ca
ca
ca
ca
c
o
hc
hc
hc
h1
h1
h1
h1
hc
hc
hc
h1
h1
ha
ha
ha
ha

$$$$
conf_6
     RDKit          3D

 40 41  0  0  1  0  0  0  0  0999 V2000
   -2.7199    3.7388    0.1037 C   0  0  0  0  0  0  0  0  0  0  0  0
   -3.1417    2.2782    0.1393 C   0  0  0  0  0  0  0  0  0  0  0  0
   -2.0055    1.4783    0.3646 O   0  0  0  0  0  0  0  0  0  0  0  0
   -2.5006   -0.1421    0.5832 P   0  0  0  0  0  0  0  0  0  0  0  0
   -2.9584   -0.3764    2.2374 S   0  0  0  0  0  0  0  0  0  0  0  0
   -3.8313   -0.4860   -0.4377 O   0  0  0  0  0  0  0  0  0  0  0  0
   -3.9854   -1.8810   -0.5563 C   0  0  0  0  0  0  0  0  0  0  0  0
   -5.2998   -2.1752   -1.2620 C   0  0  0  0  0  0  0  0  0  0  0  0
   -0.8359   -1.3897    0.1206 S   0  0  0  0  0  0  0  0  0  0  0  0
    0.3681   -0.6064    1.2711 C   0  0  1  0  0  0  0  0  0  0  0  0
   -0.0496    0.3493    1.6491 H   0  0  0  0  0  0  0  0  0  0  0  0
    0.6210   -1.4943    2.4981 C   0  0  0  0  0  0  0  0  0  0  0  0
    1.2839   -3.0984    2.0777 Cl  0  0  0  0  0  0  0  0  0  0  0  0
    1.6255   -0.2925    0.5812 N   0  0  0  0  0  0  0  0  0  0  0  0
    2.5404    0.7424    0.9583 C   0  0  0  0  0  0  0  0  0  0  0  0
    2.2834    1.6426    1.8013 O   0  0  0  0  0  0  0  0  0  0  0  0
    3.8034    0.5862    0.2480 C   0  0  0  0  0  0  0  0  0  0  0  0
    4.9707    1.3469    0.2880 C   0  0  0  0  0  0  0  0  0  0  0  0
    6.0520    0.9389   -0.5135 C   0  0  0  0  0  0  0  0  0  0  0  0
    5.9459   -0.2105   -1.3267 C   0  0  0  0  0  0  0  0  0  0  0  0
    4.7576   -0.9626   -1.3460 C   0  0  0  0  0  0  0  0  0  0  0  0
    3.6999   -0.5352   -0.5451 C   0  0  0  0  0  0  0  0  0  0  0  0
    2.3703   -1.0986   -0.3441 C   0  0  0  0  0  0  0  0  0  0  0  0
    1.9360   -2.1454   -0.8935 O   0  0  0  0  0  0  0  0  0  0  0  0
   -3.6065    4.3819   -0.0798 H   0  0  0  0  0  0  0  0  0  0  0  0
   -1.9818    3.9019   -0.7102 H   0  0  0  0  0  0  0  0  0  0  0  0
   -2.2616    4.0254    1.0740 H   0  0  0  0  0  0  0  0  0  0  0  0
   -3.8928    2.1575    0.9532 H   0  0  0  0  0  0  0  0  0  0  0  0
   -3.6037    2.0293   -0.8418 H   0  0  0  0  0  0  0  0  0  0  0  0
   -3.1641   -2.3087   -1.1712 H   0  0  0  0  0  0  0  0  0  0  0  0
   -4.0130   -2.3813    0.4383 H   0  0  0  0  0  0  0  0  0  0  0  0
   -5.4304   -3.2726   -1.3718 H   0  0  0  0  0  0  0  0  0  0  0  0
   -6.1476   -1.7690   -0.6703 H   0  0  0  0  0  0  0  0  0  0  0  0
   -5.3030   -1.7095   -2.2705 H   0  0  0  0  0  0  0  0  0  0  0  0
    1.3344   -0.9876    3.1821 H   0  0  0  0  0  0  0  0  0  0  0  0
   -0.3297   -1.6451    3.0505 H   0  0  0  0  0  0  0  0  0  0  0  0
    5.0442    2.2246    0.9170 H   0  0  0  0  0  0  0  0  0  0  0  0
    6.9719    1.5088   -0.5053 H   0  0  0  0  0  0  0  0  0  0  0  0
    6.7850   -0.5160   -1.9381 H   0  0  0  0  0  0  0  0  0  0  0  0
    4.6686   -1.8468   -1.9636 H   0  0  0  0  0  0  0  0  0  0  0  0
  1  2  1  0
  2  3  1  0
  3  4  1  0
  4  5  2  0
  4  6  1  0
  6  7  1  0
  7  8  1  0
  4  9  1  0
  9 10  1  0
 10 11  1  1
 10 12  1  0
 12 13  1  0
 10 14  1  0
 14 23  1  0
 14 15  1  0
 15 16  2  0
 15 17  1  0
 17 22  2  0
 17 18  1  0
 18 19  2  0
 19 20  1  0
 20 21  2  0
 21 22  1  0
 22 23  1  0
 23 24  2  0
  1 25  1  0
  1 26  1  0
  1 27  1  0
  2 28  1  0
  2 29  1  0
  7 30  1  0
  7 31  1  0
  8 32  1  0
  8 33  1  0
  8 34  1  0
 12 35  1  0
 12 36  1  0
 18 37  1  0
 19 38  1  0
 20 39  1  0
 21 40  1  0
M  END
>  <partial_charges>  (7) 
-0.0961000025272
0.132400006056
-0.497500002384
0.915899991989
-0.482699990273
-0.497500002384
0.132400006056
-0.0961000025272
-0.55529999733
0.407200008631
0.118900001049
0.00270000007004
-0.178000003099
-0.503600001335
0.735700011253
-0.54439997673
-0.133900001645
-0.0593000017107
-0.114299997687
-0.114299997687
-0.0593000017107
-0.133900001645
0.735700011253
-0.54439997673
0.055799998343
0.055799998343
0.055799998343
0.0653000026941
0.0653000026941
0.0653000026941
0.0653000026941
0.055799998343
0.055799998343
0.055799998343
0.108099997044
0.108099997044
0.16210000217
0.146400004625
0.146400004625
0.16210000217

>  <partial_bond_orders>  (7) 
1.0
1.0
1.0
2.0
1.0
1.0
1.0
1.0
1.0
1.0
1.0
1.0
1.0
1.0
1.0
2.0
1.0
2.0
1.0
2.0
1.0
2.0
1.0
1.0
2.0
1.0
1.0
1.0
1.0
1.0
1.0
1.0
1.0
1.0
1.0
1.0
1.0
1.0
1.0
1.0
1.0

>  <atom_types>  (7) 
c3
c3
os
p5
s
os
c3
c3
ss
c3
h2
c3
cl
n
c
o
ca
ca
ca
ca
ca
ca
c
o
hc
hc
hc
h1
h1
h1
h1
hc
hc
hc
h1
h1
ha
ha
ha
ha

$$$$
conf_7
     RDKit          3D

 40 41  0  0  1  0  0  0  0  0999 V2000
   -3.3587    3.0653    1.8239 C   0  0  0  0  0  0  0  0  0  0  0  0
   -3.1635    1.7932    1.0175 C   0  0  0  0  0  0  0  0  0  0  0  0
   -1.9822    1.9069    0.2593 O   0  0  0  0  0  0  0  0  0  0  0  0
   -1.7012    0.4149   -0.5211 P   0  0  0  0  0  0  0  0  0  0  0  0
   -0.3668    0.6115   -1.6055 S   0  0  0  0  0  0  0  0  0  0  0  0
   -3.0927   -0.0043   -1.4245 O   0  0  0  0  0  0  0  0  0  0  0  0
   -3.0295   -1.3697   -1.7715 C   0  0  0  0  0  0  0  0  0  0  0  0
   -4.1209   -1.6775   -2.7844 C   0  0  0  0  0  0  0  0  0  0  0  0
   -1.2352   -1.0770    0.9361 S   0  0  0  0  0  0  0  0  0  0  0  0
    0.0757   -0.1257    1.7957 C   0  0  1  0  0  0  0  0  0  0  0  0
   -0.2357    0.9371    1.8751 H   0  0  0  0  0  0  0  0  0  0  0  0
    0.2438   -0.6648    3.2185 C   0  0  0  0  0  0  0  0  0  0  0  0
    1.4544    0.2835    4.1234 Cl  0  0  0  0  0  0  0  0  0  0  0  0
    1.3380   -0.2215    1.0564 N   0  0  0  0  0  0  0  0  0  0  0  0
    2.0190   -1.4002    0.6136 C   0  0  0  0  0  0  0  0  0  0  0  0
    1.5890   -2.5744    0.7698 O   0  0  0  0  0  0  0  0  0  0  0  0
    3.2736   -1.0334   -0.0348 C   0  0  0  0  0  0  0  0  0  0  0  0
    4.2421   -1.8256   -0.6493 C   0  0  0  0  0  0  0  0  0  0  0  0
    5.3526   -1.1813   -1.2250 C   0  0  0  0  0  0  0  0  0  0  0  0
    5.4703    0.2279   -1.1762 C   0  0  0  0  0  0  0  0  0  0  0  0
    4.4808    1.0062   -0.5466 C   0  0  0  0  0  0  0  0  0  0  0  0
    3.3901    0.3419    0.0172 C   0  0  0  0  0  0  0  0  0  0  0  0
    2.2100    0.8574    0.7016 C   0  0  0  0  0  0  0  0  0  0  0  0
    1.9873    2.0675    0.9682 O   0  0  0  0  0  0  0  0  0  0  0  0
   -3.4113    3.9398    1.1454 H   0  0  0  0  0  0  0  0  0  0  0  0
   -2.5104    3.2034    2.5266 H   0  0  0  0  0  0  0  0  0  0  0  0
   -4.3029    3.0006    2.4041 H   0  0  0  0  0  0  0  0  0  0  0  0
   -3.1057    0.9448    1.7336 H   0  0  0  0  0  0  0  0  0  0  0  0
   -4.0460    1.6617    0.3522 H   0  0  0  0  0  0  0  0  0  0  0  0
   -3.2067   -2.0014   -0.8743 H   0  0  0  0  0  0  0  0  0  0  0  0
   -2.0541   -1.6380   -2.2340 H   0  0  0  0  0  0  0  0  0  0  0  0
   -3.9717   -1.0656   -3.7034 H   0  0  0  0  0  0  0  0  0  0  0  0
   -4.0844   -2.7560   -3.0588 H   0  0  0  0  0  0  0  0  0  0  0  0
   -5.1185   -1.4511   -2.3481 H   0  0  0  0  0  0  0  0  0  0  0  0
    0.5563   -1.7317    3.2019 H   0  0  0  0  0  0  0  0  0  0  0  0
   -0.7257   -0.5889    3.7566 H   0  0  0  0  0  0  0  0  0  0  0  0
    4.1398   -2.9038   -0.6901 H   0  0  0  0  0  0  0  0  0  0  0  0
    6.1180   -1.7687   -1.7163 H   0  0  0  0  0  0  0  0  0  0  0  0
    6.3243    0.7104   -1.6305 H   0  0  0  0  0  0  0  0  0  0  0  0
    4.5588    2.0864   -0.5127 H   0  0  0  0  0  0  0  0  0  0  0  0
  1  2  1  0
  2  3  1  0
  3  4  1  0
  4  5  2  0
  4  6  1  0
  6  7  1  0
  7  8  1  0
  4  9  1  0
  9 10  1  0
 10 11  1  1
 10 12  1  0
 12 13  1  0
 10 14  1  0
 14 23  1  0
 14 15  1  0
 15 16  2  0
 15 17  1  0
 17 22  2  0
 17 18  1  0
 18 19  2  0
 19 20  1  0
 20 21  2  0
 21 22  1  0
 22 23  1  0
 23 24  2  0
  1 25  1  0
  1 26  1  0
  1 27  1  0
  2 28  1  0
  2 29  1  0
  7 30  1  0
  7 31  1  0
  8 32  1  0
  8 33  1  0
  8 34  1  0
 12 35  1  0
 12 36  1  0
 18 37  1  0
 19 38  1  0
 20 39  1  0
 21 40  1  0
M  END
>  <partial_charges>  (8) 
-0.0961000025272
0.132400006056
-0.497500002384
0.915899991989
-0.482699990273
-0.497500002384
0.132400006056
-0.0961000025272
-0.55529999733
0.407200008631
0.118900001049
0.00270000007004
-0.178000003099
-0.503600001335
0.735700011253
-0.54439997673
-0.133900001645
-0.0593000017107
-0.114299997687
-0.114299997687
-0.0593000017107
-0.133900001645
0.735700011253
-0.54439997673
0.055799998343
0.055799998343
0.055799998343
0.0653000026941
0.0653000026941
0.0653000026941
0.0653000026941
0.055799998343
0.055799998343
0.055799998343
0.108099997044
0.108099997044
0.16210000217
0.146400004625
0.146400004625
0.16210000217

>  <partial_bond_orders>  (8) 
1.0
1.0
1.0
2.0
1.0
1.0
1.0
1.0
1.0
1.0
1.0
1.0
1.0
1.0
1.0
2.0
1.0
2.0
1.0
2.0
1.0
2.0
1.0
1.0
2.0
1.0
1.0
1.0
1.0
1.0
1.0
1.0
1.0
1.0
1.0
1.0
1.0
1.0
1.0
1.0
1.0

>  <atom_types>  (8) 
c3
c3
os
p5
s
os
c3
c3
ss
c3
h2
c3
cl
n
c
o
ca
ca
ca
ca
ca
ca
c
o
hc
hc
hc
h1
h1
h1
h1
hc
hc
hc
h1
h1
ha
ha
ha
ha

$$$$
conf_8
     RDKit          3D

 40 41  0  0  1  0  0  0  0  0999 V2000
   -3.9063    2.4359    2.0554 C   0  0  0  0  0  0  0  0  0  0  0  0
   -3.7034    1.5021    0.8727 C   0  0  0  0  0  0  0  0  0  0  0  0
   -2.4107    0.9521    0.9414 O   0  0  0  0  0  0  0  0  0  0  0  0
   -2.1541   -0.0560   -0.4140 P   0  0  0  0  0  0  0  0  0  0  0  0
   -1.7278    0.9067   -1.7971 S   0  0  0  0  0  0  0  0  0  0  0  0
   -3.4976   -1.1018   -0.6547 O   0  0  0  0  0  0  0  0  0  0  0  0
   -4.2987   -0.6707   -1.7309 C   0  0  0  0  0  0  0  0  0  0  0  0
   -5.5792   -1.4902   -1.7544 C   0  0  0  0  0  0  0  0  0  0  0  0
   -0.4988   -1.3159    0.0162 S   0  0  0  0  0  0  0  0  0  0  0  0
    0.6012   -0.0171    0.7150 C   0  0  1  0  0  0  0  0  0  0  0  0
    0.2625    0.9771    0.3562 H   0  0  0  0  0  0  0  0  0  0  0  0
    0.5320    0.0077    2.2496 C   0  0  0  0  0  0  0  0  0  0  0  0
    1.0344   -1.5342    2.9974 Cl  0  0  0  0  0  0  0  0  0  0  0  0
    1.9841   -0.1986    0.2560 N   0  0  0  0  0  0  0  0  0  0  0  0
    2.7486   -1.4098    0.1583 C   0  0  0  0  0  0  0  0  0  0  0  0
    2.2668   -2.5703    0.2445 O   0  0  0  0  0  0  0  0  0  0  0  0
    4.1589   -1.0997   -0.0429 C   0  0  0  0  0  0  0  0  0  0  0  0
    5.2619   -1.9381   -0.1960 C   0  0  0  0  0  0  0  0  0  0  0  0
    6.5251   -1.3428   -0.3640 C   0  0  0  0  0  0  0  0  0  0  0  0
    6.6582    0.0629   -0.3719 C   0  0  0  0  0  0  0  0  0  0  0  0
    5.5293    0.8864   -0.2119 C   0  0  0  0  0  0  0  0  0  0  0  0
    4.2889    0.2715   -0.0509 C   0  0  0  0  0  0  0  0  0  0  0  0
    2.9620    0.8415    0.1456 C   0  0  0  0  0  0  0  0  0  0  0  0
    2.7008    2.0710    0.2294 O   0  0  0  0  0  0  0  0  0  0  0  0
   -3.7935    1.8741    3.0070 H   0  0  0  0  0  0  0  0  0  0  0  0
   -3.1571    3.2554    2.0254 H   0  0  0  0  0  0  0  0  0  0  0  0
   -4.9247    2.8769    2.0158 H   0  0  0  0  0  0  0  0  0  0  0  0
   -4.4758    0.7033    0.9313 H   0  0  0  0  0  0  0  0  0  0  0  0
   -3.8351    2.0969   -0.0589 H   0  0  0  0  0  0  0  0  0  0  0  0
   -3.7666   -0.8343   -2.6938 H   0  0  0  0  0  0  0  0  0  0  0  0
   -4.5817    0.4001   -1.6302 H   0  0  0  0  0  0  0  0  0  0  0  0
   -6.2166   -1.1673   -2.6045 H   0  0  0  0  0  0  0  0  0  0  0  0
   -5.3391   -2.5682   -1.8732 H   0  0  0  0  0  0  0  0  0  0  0  0
   -6.1406   -1.3437   -0.8072 H   0  0  0  0  0  0  0  0  0  0  0  0
   -0.5050    0.2278    2.5758 H   0  0  0  0  0  0  0  0  0  0  0  0
    1.1878    0.8160    2.6370 H   0  0  0  0  0  0  0  0  0  0  0  0
    5.1511   -3.0145   -0.1851 H   0  0  0  0  0  0  0  0  0  0  0  0
    7.4010   -1.9666   -0.4861 H   0  0  0  0  0  0  0  0  0  0  0  0
    7.6354    0.5098   -0.5000 H   0  0  0  0  0  0  0  0  0  0  0  0
    5.6223    1.9646   -0.2132 H   0  0  0  0  0  0  0  0  0  0  0  0
  1  2  1  0
  2  3  1  0
  3  4  1  0
  4  5  2  0
  4  6  1  0
  6  7  1  0
  7  8  1  0
  4  9  1  0
  9 10  1  0
 10 11  1  6
 10 12  1  0
 12 13  1  0
 10 14  1  0
 14 23  1  0
 14 15  1  0
 15 16  2  0
 15 17  1  0
 17 22  2  0
 17 18  1  0
 18 19  2  0
 19 20  1  0
 20 21  2  0
 21 22  1  0
 22 23  1  0
 23 24  2  0
  1 25  1  0
  1 26  1  0
  1 27  1  0
  2 28  1  0
  2 29  1  0
  7 30  1  0
  7 31  1  0
  8 32  1  0
  8 33  1  0
  8 34  1  0
 12 35  1  0
 12 36  1  0
 18 37  1  0
 19 38  1  0
 20 39  1  0
 21 40  1  0
M  END
>  <partial_charges>  (9) 
-0.0961000025272
0.132400006056
-0.497500002384
0.915899991989
-0.482699990273
-0.497500002384
0.132400006056
-0.0961000025272
-0.55529999733
0.407200008631
0.118900001049
0.00270000007004
-0.178000003099
-0.503600001335
0.735700011253
-0.54439997673
-0.133900001645
-0.0593000017107
-0.114299997687
-0.114299997687
-0.0593000017107
-0.133900001645
0.735700011253
-0.54439997673
0.055799998343
0.055799998343
0.055799998343
0.0653000026941
0.0653000026941
0.0653000026941
0.0653000026941
0.055799998343
0.055799998343
0.055799998343
0.108099997044
0.108099997044
0.16210000217
0.146400004625
0.146400004625
0.16210000217

>  <partial_bond_orders>  (9) 
1.0
1.0
1.0
2.0
1.0
1.0
1.0
1.0
1.0
1.0
1.0
1.0
1.0
1.0
1.0
2.0
1.0
2.0
1.0
2.0
1.0
2.0
1.0
1.0
2.0
1.0
1.0
1.0
1.0
1.0
1.0
1.0
1.0
1.0
1.0
1.0
1.0
1.0
1.0
1.0
1.0

>  <atom_types>  (9) 
c3
c3
os
p5
s
os
c3
c3
ss
c3
h2
c3
cl
n
c
o
ca
ca
ca
ca
ca
ca
c
o
hc
hc
hc
h1
h1
h1
h1
hc
hc
hc
h1
h1
ha
ha
ha
ha

$$$$
